version 3
run ExtUeAppMecApp-0-20220722-09:23:15-3303
attr configname ExtUeAppMecApp
attr datetime 20220722-09:23:15
attr datetimef 20220722-092315
attr experiment ExtUeAppMecApp
attr inifile omnetpp.ini
attr iterationvars ""
attr iterationvarsd ""
attr iterationvarsf ""
attr measurement ""
attr network simu5g.emulation.mec.extUeAppMecApp.ExtUeAppMecAppExample
attr processid 3303
attr repetition 0
attr replication #0
attr resultdir results
attr runnumber 0
attr seedset 0
config *.upf.ipv4.routingTable.routingFile "\"routing/upf.mrt\""
config *.iUpf.ipv4.routingTable.routingFile "\"routing/iUpf.mrt\""
config *.gNodeB1.ipv4.routingTable.routingFile "\"routing/gnb.mrt\""
config *.ue.ipv4.routingTable.routingFile "\"routing/ue.mrt\""
config *.ualcmp.ipv4.routingTable.routingFile "\"routing/ualcmp.mrt\""
config *.mecHost1.upf_mec.ipv4.routingTable.routingFile "\"routing/mecHost1_upf.mrt\""
config *.mecHost1.virtualisationInfrastructure.ipv4.routingTable.routingFile "\"routing/mecHost1_vi.mrt\""
config *.mecHost1.virtualisationInfrastructure.numExtEthInterfaces 1
config *.mecHost1.virtualisationInfrastructure.extEth[0].typename ExtLowerEthernetInterface
config *.mecHost1.virtualisationInfrastructure.extEth[0].device "\"sim-veth1\""
config *.mecHost1.virtualisationInfrastructure.ipv4.forwarding true
config **.extMeAppsAddress "\"192.168.2.0/24\""
config *.ue.numEthInterfaces 1
config *.ue.eth[0].typename ExtLowerEthernetInterface
config *.ue.eth[0].device "\"sim-veth2\""
config *.ue.extHostAddress "\"192.168.3.2\""
config *.ue.ipv4.forwarding true
config *.ue.numPcapRecorders 0
config *.ue.pcapRecorder[*].pcapFile "\"ue.pcap\""
config *.ue.pcapRecorder[0].moduleNamePatterns "\"eth[0]\""
config *.ue.pcapRecorder[*].pcapLinkType 1
config *.ue.numApps 1
config *.ue.app[0].typename DeviceApp
config *.ue.app[0].localPort 4500
config *.ue.app[0].UALCMPAddress "\"ualcmp\""
config *.ue.app[0].UALCMPPort 1000
config **.mecOrchestrator.mecHostList "\"mecHost1\""
config **.mecOrchestrator.mecApplicationPackageList "\"WarningAlertApp_External\""
config **.mecHost1.mecPlatformManager.mecOrchestrator "\"mecOrchestrator\""
config **.mecHost1.bsList "\"gNodeB1\""
config *.mecHost1.maxMECApps 100
config *.mecHost1.maxRam 32GB
config *.mecHost1.maxDisk 100TB
config *.mecHost1.maxCpuSpeed 400000
config *.mecHost1.mecPlatform.numMecServices 1
config *.mecHost1.mecPlatform.mecService[0].typename LocationService
config *.mecHost1.mecPlatform.mecService[0].localAddress "\"mecHost1.virtualisationInfrastructure\""
config *.mecHost1.mecPlatform.mecService[0].localPort 10020
config *.mecHost1.mecPlatform.mecService[0].rng-0 0
config *.mecHost1.mecPlatform.mecService[0].rng-1 1
config *.mecHost1.mecPlatform.mecService[0].requestServiceTime 20us
config *.mecHost1.mecPlatform.mecService[0].subscriptionServiceTime 11us
config *.mecHost1.mecPlatform.serviceRegistry.localAddress "\"mecHost1.virtualisationInfrastructure\""
config *.mecHost1.mecPlatform.serviceRegistry.localPort 10021
config *.mecHost1.mecPlatform.serviceRegistry.rng-0 0
config *.mecHost1.mecPlatform.serviceRegistry.rng-1 1
config scheduler-class inet::RealTimeScheduler
config cmdenv-express-mode true
config image-path ../../../images
config output-scalar-file-append false
config sim-time-limit 40s
config num-rngs 3
config network simu5g.emulation.mec.extUeAppMecApp.ExtUeAppMecAppExample
config **.routingRecorder.enabled false
config **.networkConfiguratorModule "\"\""
config **.fcsMode "\"computed\""
config **.crcMode "\"computed\""
config output-scalar-file results/ExtUeAppMecApp/0.sca
config output-vector-file results/ExtUeAppMecApp/0.vec
config seed-set 0
config *.playgroundSizeX 1100m
config *.playgroundSizeY 800m
config *.playgroundSizeZ 50m
config **.mobility.constraintAreaMaxX 1000m
config **.mobility.constraintAreaMaxY 1000m
config **.mobility.constraintAreaMinX 0m
config **.mobility.constraintAreaMinY 0m
config **.mobility.constraintAreaMinZ 0m
config **.mobility.constraintAreaMaxZ 0m
config **.mobility.initFromDisplayString false
config **.amcType "\"NRAmc\""
config **.pilotMode "\"ROBUST_CQI\""
config **.targetBler 0.01
config **.blerShift 5
config **.fbPeriod 40
config *.configurator.config "xmldoc(\"./demo.xml\")"
config *.gNodeB1.mobility.initialX 137m
config *.gNodeB1.mobility.initialY 260m
config *.ue*.macCellId 0
config *.ue*.masterId 0
config *.ue*.nrMacCellId 1
config *.ue*.nrMasterId 1
config *.ue.mobility.initFromDisplayString false
config *.ue.mobility.typename LinearMobility
config *.ue.mobility.updateInterval 0.05s
config **.numues 1
config **.ue.mobility.initialX 180m
config **.ue.mobility.initialY 50m
config **.ue.mobility.initialMovementHeading 90deg
config **.ue.mobility.speed 10mps
config *.uerierAggregation.numComponentueriers 1
config *.uerierAggregation.componentuerier[0].numerologyIndex 0
config *.uerierAggregation.componentuerier[0].carrierFrequency 2GHz
config *.uerierAggregation.componentuerier[0].numBands 10
config *.gNodeB1.cellularNic.numCarriers 1
config *.gNodeB1.cellularNic.channelModel[0].componentCarrierIndex 0
config *.ue.cellularNic.numNRCarriers 1
config *.ue.cellularNic.nrChannelModel[0].componentCarrierIndex 0

par ExtUeAppMecAppExample.gNodeB1.ppp$o.channel typename "\"inet.node.ethernet.Eth10G\""
par ExtUeAppMecAppExample.gNodeB1.ppp$o.channel disabled false
attr mutable ""
par ExtUeAppMecAppExample.gNodeB1.ppp$o.channel delay 5e-08s
attr mutable ""
attr unit s
par ExtUeAppMecAppExample.gNodeB1.ppp$o.channel datarate 1e+10bps
attr mutable ""
attr unit bps
par ExtUeAppMecAppExample.gNodeB1.ppp$o.channel ber 0
attr mutable ""
par ExtUeAppMecAppExample.gNodeB1.ppp$o.channel per 0
attr mutable ""
par ExtUeAppMecAppExample.gNodeB1.ppp$o.channel length 10m
attr unit m
par ExtUeAppMecAppExample.iUpf.pppg$o[0].channel typename "\"inet.node.ethernet.Eth10G\""
par ExtUeAppMecAppExample.iUpf.pppg$o[0].channel disabled false
attr mutable ""
par ExtUeAppMecAppExample.iUpf.pppg$o[0].channel delay 5e-08s
attr mutable ""
attr unit s
par ExtUeAppMecAppExample.iUpf.pppg$o[0].channel datarate 1e+10bps
attr mutable ""
attr unit bps
par ExtUeAppMecAppExample.iUpf.pppg$o[0].channel ber 0
attr mutable ""
par ExtUeAppMecAppExample.iUpf.pppg$o[0].channel per 0
attr mutable ""
par ExtUeAppMecAppExample.iUpf.pppg$o[0].channel length 10m
attr unit m
par ExtUeAppMecAppExample.iUpf.pppg$o[1].channel typename "\"inet.node.ethernet.Eth10G\""
par ExtUeAppMecAppExample.iUpf.pppg$o[1].channel disabled false
attr mutable ""
par ExtUeAppMecAppExample.iUpf.pppg$o[1].channel delay 5e-08s
attr mutable ""
attr unit s
par ExtUeAppMecAppExample.iUpf.pppg$o[1].channel datarate 1e+10bps
attr mutable ""
attr unit bps
par ExtUeAppMecAppExample.iUpf.pppg$o[1].channel ber 0
attr mutable ""
par ExtUeAppMecAppExample.iUpf.pppg$o[1].channel per 0
attr mutable ""
par ExtUeAppMecAppExample.iUpf.pppg$o[1].channel length 10m
attr unit m
par ExtUeAppMecAppExample.upf.pppg$o[0].channel typename "\"inet.node.ethernet.Eth10G\""
par ExtUeAppMecAppExample.upf.pppg$o[0].channel disabled false
attr mutable ""
par ExtUeAppMecAppExample.upf.pppg$o[0].channel delay 5e-08s
attr mutable ""
attr unit s
par ExtUeAppMecAppExample.upf.pppg$o[0].channel datarate 1e+10bps
attr mutable ""
attr unit bps
par ExtUeAppMecAppExample.upf.pppg$o[0].channel ber 0
attr mutable ""
par ExtUeAppMecAppExample.upf.pppg$o[0].channel per 0
attr mutable ""
par ExtUeAppMecAppExample.upf.pppg$o[0].channel length 10m
attr unit m
par ExtUeAppMecAppExample.mecHost1.ppp$o[0].channel typename "\"inet.node.ethernet.Eth10G\""
par ExtUeAppMecAppExample.mecHost1.ppp$o[0].channel disabled false
attr mutable ""
par ExtUeAppMecAppExample.mecHost1.ppp$o[0].channel delay 5e-08s
attr mutable ""
attr unit s
par ExtUeAppMecAppExample.mecHost1.ppp$o[0].channel datarate 1e+10bps
attr mutable ""
attr unit bps
par ExtUeAppMecAppExample.mecHost1.ppp$o[0].channel ber 0
attr mutable ""
par ExtUeAppMecAppExample.mecHost1.ppp$o[0].channel per 0
attr mutable ""
par ExtUeAppMecAppExample.mecHost1.ppp$o[0].channel length 10m
attr unit m
par ExtUeAppMecAppExample.iUpf.pppg$o[2].channel typename "\"inet.node.ethernet.Eth10G\""
par ExtUeAppMecAppExample.iUpf.pppg$o[2].channel disabled false
attr mutable ""
par ExtUeAppMecAppExample.iUpf.pppg$o[2].channel delay 5e-08s
attr mutable ""
attr unit s
par ExtUeAppMecAppExample.iUpf.pppg$o[2].channel datarate 1e+10bps
attr mutable ""
attr unit bps
par ExtUeAppMecAppExample.iUpf.pppg$o[2].channel ber 0
attr mutable ""
par ExtUeAppMecAppExample.iUpf.pppg$o[2].channel per 0
attr mutable ""
par ExtUeAppMecAppExample.iUpf.pppg$o[2].channel length 10m
attr unit m
par ExtUeAppMecAppExample.upf.filterGate$o.channel typename "\"inet.node.ethernet.Eth10G\""
par ExtUeAppMecAppExample.upf.filterGate$o.channel disabled false
attr mutable ""
par ExtUeAppMecAppExample.upf.filterGate$o.channel delay 5e-08s
attr mutable ""
attr unit s
par ExtUeAppMecAppExample.upf.filterGate$o.channel datarate 1e+10bps
attr mutable ""
attr unit bps
par ExtUeAppMecAppExample.upf.filterGate$o.channel ber 0
attr mutable ""
par ExtUeAppMecAppExample.upf.filterGate$o.channel per 0
attr mutable ""
par ExtUeAppMecAppExample.upf.filterGate$o.channel length 10m
attr unit m
par ExtUeAppMecAppExample.ualcmp.ppp$o[0].channel typename "\"inet.node.ethernet.Eth10G\""
par ExtUeAppMecAppExample.ualcmp.ppp$o[0].channel disabled false
attr mutable ""
par ExtUeAppMecAppExample.ualcmp.ppp$o[0].channel delay 5e-08s
attr mutable ""
attr unit s
par ExtUeAppMecAppExample.ualcmp.ppp$o[0].channel datarate 1e+10bps
attr mutable ""
attr unit bps
par ExtUeAppMecAppExample.ualcmp.ppp$o[0].channel ber 0
attr mutable ""
par ExtUeAppMecAppExample.ualcmp.ppp$o[0].channel per 0
attr mutable ""
par ExtUeAppMecAppExample.ualcmp.ppp$o[0].channel length 10m
attr unit m
par ExtUeAppMecAppExample.routingRecorder typename "\"inet.networklayer.ipv4.RoutingTableRecorder\""
par ExtUeAppMecAppExample.routingRecorder enabled false
par ExtUeAppMecAppExample.configurator typename "\"inet.networklayer.configurator.ipv4.Ipv4NetworkConfigurator\""
par ExtUeAppMecAppExample.configurator minLinkWeight 0.001
par ExtUeAppMecAppExample.configurator configureIsolatedNetworksSeparatly false
par ExtUeAppMecAppExample.configurator config "<config>...</config> at /home/simu5g/simu5g-workspace/simu5G/emulation/mec/extUeAppMecApp//./demo.xml:1"
par ExtUeAppMecAppExample.configurator assignAddresses true
par ExtUeAppMecAppExample.configurator assignUniqueAddresses true
par ExtUeAppMecAppExample.configurator assignDisjunctSubnetAddresses true
par ExtUeAppMecAppExample.configurator addStaticRoutes true
par ExtUeAppMecAppExample.configurator addDefaultRoutes true
par ExtUeAppMecAppExample.configurator addSubnetRoutes true
par ExtUeAppMecAppExample.configurator addDirectRoutes true
par ExtUeAppMecAppExample.configurator optimizeRoutes true
par ExtUeAppMecAppExample.configurator dumpTopology false
par ExtUeAppMecAppExample.configurator dumpLinks false
par ExtUeAppMecAppExample.configurator dumpAddresses false
par ExtUeAppMecAppExample.configurator dumpRoutes false
par ExtUeAppMecAppExample.configurator dumpConfig "\"\""
par ExtUeAppMecAppExample.channelControl typename "\"simu5g.world.radio.LteChannelControl\""
par ExtUeAppMecAppExample.channelControl coreDebug false
par ExtUeAppMecAppExample.channelControl pMax 20mW
attr unit mW
par ExtUeAppMecAppExample.channelControl sat -110dBm
attr unit dBm
par ExtUeAppMecAppExample.channelControl alpha 2
par ExtUeAppMecAppExample.channelControl carrierFrequency 2.4e+09Hz
attr unit Hz
par ExtUeAppMecAppExample.channelControl numChannels 1
par ExtUeAppMecAppExample.channelControl propagationModel "\"FreeSpaceModel\""
attr enum FreeSpaceModel,TwoRayGroundModel,RiceModel,RayleighModel,NakagamiModel,LogNormalShadowingModel
par ExtUeAppMecAppExample.binder typename "\"simu5g.common.binder.Binder\""
par ExtUeAppMecAppExample.binder blerShift 5
par ExtUeAppMecAppExample.binder maxDataRatePerRb 1.16Mbps
attr unit Mbps
par ExtUeAppMecAppExample.binder printTrafficGeneratorConfig false
par ExtUeAppMecAppExample.carrierAggregation.componentCarrier[0] typename "\"simu5g.common.carrierAggregation.ComponentCarrier\""
par ExtUeAppMecAppExample.carrierAggregation.componentCarrier[0] carrierFrequency 2GHz
attr unit GHz
par ExtUeAppMecAppExample.carrierAggregation.componentCarrier[0] numBands 6
par ExtUeAppMecAppExample.carrierAggregation.componentCarrier[0] numerologyIndex 0
par ExtUeAppMecAppExample.carrierAggregation.componentCarrier[0] useTdd false
par ExtUeAppMecAppExample.carrierAggregation.componentCarrier[0] tddNumSymbolsDl 7
par ExtUeAppMecAppExample.carrierAggregation.componentCarrier[0] tddNumSymbolsUl 7
par ExtUeAppMecAppExample.carrierAggregation typename "\"simu5g.common.carrierAggregation.CarrierAggregation\""
par ExtUeAppMecAppExample.carrierAggregation numComponentCarriers 1
par ExtUeAppMecAppExample.upf.pppg$i[0].channel typename "\"ned.IdealChannel\""
par ExtUeAppMecAppExample.upf.ppp[0].phys$o.channel typename "\"ned.IdealChannel\""
par ExtUeAppMecAppExample.upf.interfaceTable typename "\"inet.networklayer.common.InterfaceTable\""
par ExtUeAppMecAppExample.upf.interfaceTable displayAddresses false
par ExtUeAppMecAppExample.upf.cb typename "\"inet.common.MessageDispatcher\""
par ExtUeAppMecAppExample.upf.cb displayStringTextFormat "\"processed %p pk (%l)\""
par ExtUeAppMecAppExample.upf.cb forwardServiceRegistration true
par ExtUeAppMecAppExample.upf.cb forwardProtocolRegistration true
par ExtUeAppMecAppExample.upf.bl typename "\"inet.common.MessageDispatcher\""
par ExtUeAppMecAppExample.upf.bl displayStringTextFormat "\"processed %p pk (%l)\""
par ExtUeAppMecAppExample.upf.bl forwardServiceRegistration true
par ExtUeAppMecAppExample.upf.bl forwardProtocolRegistration true
par ExtUeAppMecAppExample.upf.li typename "\"inet.common.MessageDispatcher\""
par ExtUeAppMecAppExample.upf.li displayStringTextFormat "\"processed %p pk (%l)\""
par ExtUeAppMecAppExample.upf.li forwardServiceRegistration true
par ExtUeAppMecAppExample.upf.li forwardProtocolRegistration true
par ExtUeAppMecAppExample.upf.lo[0].upperLayerIn.channel typename "\"ned.IdealChannel\""
par ExtUeAppMecAppExample.upf.lo[0].lo.upperLayerOut.channel typename "\"ned.IdealChannel\""
par ExtUeAppMecAppExample.upf.lo[0].lo typename "\"inet.linklayer.loopback.Loopback\""
par ExtUeAppMecAppExample.upf.lo[0].lo interfaceTableModule "\"ExtUeAppMecAppExample.upf.interfaceTable\""
par ExtUeAppMecAppExample.upf.lo[0].lo mtu 4470B
attr unit B
scalar ExtUeAppMecAppExample.upf.lo[0].lo rcvdPkFromHl:count 0
attr interpolationmode none
attr recordingmode count
attr source packetReceivedFromUpper
attr title "packets received from higher layer, count"
scalar ExtUeAppMecAppExample.upf.lo[0].lo rcvdPkFromHl:sum(packetBytes) 0
attr interpolationmode none
attr recordingmode sum(packetBytes)
attr source packetReceivedFromUpper
attr title "packets received from higher layer, sum(packetBytes)"
scalar ExtUeAppMecAppExample.upf.lo[0].lo passedUpPk:count 0
attr interpolationmode none
attr recordingmode count
attr source packetSentToUpper
attr title "packets passed to higher layer, count"
scalar ExtUeAppMecAppExample.upf.lo[0].lo passedUpPk:sum(packetBytes) 0
attr interpolationmode none
attr recordingmode sum(packetBytes)
attr source packetSentToUpper
attr title "packets passed to higher layer, sum(packetBytes)"
par ExtUeAppMecAppExample.upf.lo[0] typename "\"inet.linklayer.loopback.LoopbackInterface\""
par ExtUeAppMecAppExample.upf.lo[0] displayStringTextFormat "\"%a (%i)\\n%m\""
par ExtUeAppMecAppExample.upf.lo[0] recordPcap false
par ExtUeAppMecAppExample.upf.lo[0] numPcapRecorders 0
par ExtUeAppMecAppExample.upf.lo[0] interfaceTableModule "\"ExtUeAppMecAppExample.upf.interfaceTable\""
scalar ExtUeAppMecAppExample.upf.lo[0] packetDropInterfaceDown:count 0
attr interpolationmode none
attr recordingmode count
attr source packetDropReasonIsInterfaceDown(packetDropped)
attr title "packet drops: interface down, count"
scalar ExtUeAppMecAppExample.upf.lo[0] packetDropInterfaceDown:sum(packetBytes) 0
attr interpolationmode none
attr recordingmode sum(packetBytes)
attr source packetDropReasonIsInterfaceDown(packetDropped)
attr title "packet drops: interface down, sum(packetBytes)"
scalar ExtUeAppMecAppExample.upf.lo[0] packetDropNoCarrier:count 0
attr interpolationmode none
attr recordingmode count
attr source packetDropReasonIsNoCarrier(packetDropped)
attr title "packet drops: no carrier, count"
scalar ExtUeAppMecAppExample.upf.lo[0] packetDropNoCarrier:sum(packetBytes) 0
attr interpolationmode none
attr recordingmode sum(packetBytes)
attr source packetDropReasonIsNoCarrier(packetDropped)
attr title "packet drops: no carrier, sum(packetBytes)"
par ExtUeAppMecAppExample.upf.ppp[0].phys$i.channel typename "\"ned.IdealChannel\""
par ExtUeAppMecAppExample.upf.ppp[0].ppp.phys$o.channel typename "\"ned.IdealChannel\""
par ExtUeAppMecAppExample.upf.ppp[0].ppp.upperLayerOut.channel typename "\"ned.IdealChannel\""
par ExtUeAppMecAppExample.upf.ppp[0].upperLayerIn.channel typename "\"ned.IdealChannel\""
par ExtUeAppMecAppExample.upf.ppp[0].queue typename "\"inet.queueing.queue.DropTailQueue\""
par ExtUeAppMecAppExample.upf.ppp[0].queue displayStringTextFormat "\"contains %p pk (%l) pushed %u\\npulled %o removed %r dropped %d\""
par ExtUeAppMecAppExample.upf.ppp[0].queue packetCapacity 10000
par ExtUeAppMecAppExample.upf.ppp[0].queue dataCapacity -1b
attr unit b
par ExtUeAppMecAppExample.upf.ppp[0].queue dropperClass "\"inet::queueing::PacketAtCollectionEndDropper\""
par ExtUeAppMecAppExample.upf.ppp[0].queue comparatorClass "\"\""
par ExtUeAppMecAppExample.upf.ppp[0].queue bufferModule "\"\""
scalar ExtUeAppMecAppExample.upf.ppp[0].queue queueLength:last 0
attr autoWarmupFilter false
attr interpolationmode sample-hold
attr recordingmode last
attr source "warmup(atomic(constant0(packetPushEnded) + count(packetPushStarted) - count(packetPulled) - count(packetRemoved) - count(packetDropped)))"
attr title "queue length, last"
attr unit pk
scalar ExtUeAppMecAppExample.upf.ppp[0].queue queueLength:max 0
attr autoWarmupFilter false
attr interpolationmode sample-hold
attr recordingmode max
attr source "warmup(atomic(constant0(packetPushEnded) + count(packetPushStarted) - count(packetPulled) - count(packetRemoved) - count(packetDropped)))"
attr title "queue length, max"
attr unit pk
scalar ExtUeAppMecAppExample.upf.ppp[0].queue queueLength:timeavg 0
attr autoWarmupFilter false
attr interpolationmode sample-hold
attr recordingmode timeavg
attr source "warmup(atomic(constant0(packetPushEnded) + count(packetPushStarted) - count(packetPulled) - count(packetRemoved) - count(packetDropped)))"
attr title "queue length, timeavg"
attr unit pk
scalar ExtUeAppMecAppExample.upf.ppp[0].queue queueBitLength:last 0
attr autoWarmupFilter false
attr interpolationmode sample-hold
attr recordingmode last
attr source "warmup(atomic(constant0(packetPushEnded) + sum(packetLength(packetPushStarted)) - sum(packetLength(packetPulled)) - sum(packetLength(packetRemoved)) - sum(packetLength(packetDropped))))"
attr title "queue bit length, last"
attr unit b
scalar ExtUeAppMecAppExample.upf.ppp[0].queue queueBitLength:max 0
attr autoWarmupFilter false
attr interpolationmode sample-hold
attr recordingmode max
attr source "warmup(atomic(constant0(packetPushEnded) + sum(packetLength(packetPushStarted)) - sum(packetLength(packetPulled)) - sum(packetLength(packetRemoved)) - sum(packetLength(packetDropped))))"
attr title "queue bit length, max"
attr unit b
scalar ExtUeAppMecAppExample.upf.ppp[0].queue queueBitLength:timeavg 0
attr autoWarmupFilter false
attr interpolationmode sample-hold
attr recordingmode timeavg
attr source "warmup(atomic(constant0(packetPushEnded) + sum(packetLength(packetPushStarted)) - sum(packetLength(packetPulled)) - sum(packetLength(packetRemoved)) - sum(packetLength(packetDropped))))"
attr title "queue bit length, timeavg"
attr unit b
statistic ExtUeAppMecAppExample.upf.ppp[0].queue queueingTime:histogram
field count 7
field mean 0
field stddev 0
field min 0
field max 0
field sum 0
field sqrsum 0
attr interpolationmode none
attr recordingmode histogram
attr source queueingTime(packetPulled)
attr title "queueing times"
attr unit s
bin	-inf	0
bin	-0.5	0
bin	-0.48	0
bin	-0.46	0
bin	-0.44	0
bin	-0.42	0
bin	-0.4	0
bin	-0.38	0
bin	-0.36	0
bin	-0.34	0
bin	-0.32	0
bin	-0.3	0
bin	-0.28	0
bin	-0.26	0
bin	-0.24	0
bin	-0.22	0
bin	-0.2	0
bin	-0.18	0
bin	-0.16	0
bin	-0.14	0
bin	-0.12	0
bin	-0.1	0
bin	-0.08	0
bin	-0.06	0
bin	-0.04	0
bin	-0.02	0
bin	0	7
bin	0.02	0
bin	0.04	0
bin	0.06	0
bin	0.08	0
bin	0.1	0
bin	0.12	0
bin	0.14	0
bin	0.16	0
bin	0.18	0
bin	0.2	0
bin	0.22	0
bin	0.24	0
bin	0.26	0
bin	0.28	0
bin	0.3	0
bin	0.32	0
bin	0.34	0
bin	0.36	0
bin	0.38	0
bin	0.4	0
bin	0.42	0
bin	0.44	0
bin	0.46	0
bin	0.48	0
bin	0.5	0
scalar ExtUeAppMecAppExample.upf.ppp[0].queue outgoingPackets:count 7
attr recordingmode count
attr source packetPulled
attr title "outgoing packets, count"
attr unit pk
scalar ExtUeAppMecAppExample.upf.ppp[0].queue outgoingPacketLengths:sum 11104
attr interpolationmode none
attr recordingmode sum
attr source packetLength(packetPulled)
attr title "outgoing packet lengths, sum"
attr unit b
statistic ExtUeAppMecAppExample.upf.ppp[0].queue outgoingPacketLengths:histogram
field count 7
field mean 1586.2857142857
field stddev 1473.8011754514
field min 608
field max 4112
field sum 11104
field sqrsum 30646656
attr interpolationmode none
attr recordingmode histogram
attr source packetLength(packetPulled)
attr title "outgoing packet lengths"
attr unit b
bin	-inf	0
bin	0	0
bin	100	0
bin	200	0
bin	300	0
bin	400	0
bin	500	0
bin	600	4
bin	700	0
bin	800	0
bin	900	0
bin	1000	0
bin	1100	0
bin	1200	1
bin	1300	0
bin	1400	0
bin	1500	0
bin	1600	0
bin	1700	0
bin	1800	0
bin	1900	0
bin	2000	0
bin	2100	0
bin	2200	0
bin	2300	0
bin	2400	0
bin	2500	0
bin	2600	0
bin	2700	0
bin	2800	0
bin	2900	0
bin	3000	0
bin	3100	0
bin	3200	1
bin	3300	0
bin	3400	0
bin	3500	0
bin	3600	0
bin	3700	0
bin	3800	0
bin	3900	0
bin	4000	0
bin	4100	1
bin	4200	0
bin	4300	0
bin	4400	0
bin	4500	0
bin	4600	0
bin	4700	0
bin	4800	0
bin	4900	0
bin	5000	0
statistic ExtUeAppMecAppExample.upf.ppp[0].queue flowQueueingTime:histogram
field count 0
field mean -nan
field stddev nan
field min nan
field max nan
field sum 0
field sqrsum 0
attr interpolationmode none
attr recordingmode histogram
attr source queueingTime(demuxFlow(packetPulled))
attr title "flow queueing times"
attr unit s
bin	-inf	0
bin	0	0
bin	1	0
scalar ExtUeAppMecAppExample.upf.ppp[0].queue incomingPackets:count 7
attr recordingmode count
attr source packetPushStarted
attr title "incoming packets, count"
attr unit pk
scalar ExtUeAppMecAppExample.upf.ppp[0].queue incomingPacketLengths:sum 11104
attr interpolationmode none
attr recordingmode sum
attr source packetLength(packetPushStarted)
attr title "incoming packet lengths, sum"
attr unit b
statistic ExtUeAppMecAppExample.upf.ppp[0].queue incomingPacketLengths:histogram
field count 7
field mean 1586.2857142857
field stddev 1473.8011754514
field min 608
field max 4112
field sum 11104
field sqrsum 30646656
attr interpolationmode none
attr recordingmode histogram
attr source packetLength(packetPushStarted)
attr title "incoming packet lengths"
attr unit b
bin	-inf	0
bin	0	0
bin	100	0
bin	200	0
bin	300	0
bin	400	0
bin	500	0
bin	600	4
bin	700	0
bin	800	0
bin	900	0
bin	1000	0
bin	1100	0
bin	1200	1
bin	1300	0
bin	1400	0
bin	1500	0
bin	1600	0
bin	1700	0
bin	1800	0
bin	1900	0
bin	2000	0
bin	2100	0
bin	2200	0
bin	2300	0
bin	2400	0
bin	2500	0
bin	2600	0
bin	2700	0
bin	2800	0
bin	2900	0
bin	3000	0
bin	3100	0
bin	3200	1
bin	3300	0
bin	3400	0
bin	3500	0
bin	3600	0
bin	3700	0
bin	3800	0
bin	3900	0
bin	4000	0
bin	4100	1
bin	4200	0
bin	4300	0
bin	4400	0
bin	4500	0
bin	4600	0
bin	4700	0
bin	4800	0
bin	4900	0
bin	5000	0
scalar ExtUeAppMecAppExample.upf.ppp[0].queue droppedPacketsQueueOverflow:count 0
attr interpolationmode none
attr recordingmode count
attr source packetDropReasonIsQueueOverflow(packetDropped)
attr title "dropped packets: queue overflow, count"
attr unit pk
scalar ExtUeAppMecAppExample.upf.ppp[0].queue droppedPacketLengthsQueueOverflow:sum 0
attr interpolationmode none
attr recordingmode sum
attr source packetLength(packetDropReasonIsQueueOverflow(packetDropped))
attr title "dropped packet lengths: queue overflow, sum"
attr unit b
par ExtUeAppMecAppExample.upf.ppp[0].ppp typename "\"inet.linklayer.ppp.Ppp\""
par ExtUeAppMecAppExample.upf.ppp[0].ppp interfaceTableModule "\"ExtUeAppMecAppExample.upf.interfaceTable\""
par ExtUeAppMecAppExample.upf.ppp[0].ppp displayStringTextFormat "\"rate: %b\\nsent: %s, rcvd: %r\\nqueue: %q, drop: %d\""
par ExtUeAppMecAppExample.upf.ppp[0].ppp sendRawBytes false
par ExtUeAppMecAppExample.upf.ppp[0].ppp mtu 4470B
attr unit B
par ExtUeAppMecAppExample.upf.ppp[0].ppp stopOperationExtraTime -1s
attr unit s
par ExtUeAppMecAppExample.upf.ppp[0].ppp stopOperationTimeout 2s
attr unit s
scalar ExtUeAppMecAppExample.upf.ppp[0].ppp transmissionState:timeavg 2.874e-08
attr interpolationmode sample-hold
attr recordingmode timeavg
attr source transmissionStateChanged
attr title "tx state, timeavg"
scalar ExtUeAppMecAppExample.upf.ppp[0].ppp rxPkOk:count 8
attr interpolationmode none
attr recordingmode count
attr source rxPkOk
attr title "packets received OK, count"
scalar ExtUeAppMecAppExample.upf.ppp[0].ppp rxPkOk:sum(packetBytes) 1260
attr interpolationmode none
attr recordingmode sum(packetBytes)
attr source rxPkOk
attr title "packets received OK, sum(packetBytes)"
scalar ExtUeAppMecAppExample.upf.ppp[0].ppp txPk:count 7
attr interpolationmode none
attr recordingmode count
attr source packetSentToLower
attr title "packets transmitted, count"
scalar ExtUeAppMecAppExample.upf.ppp[0].ppp txPk:sum(packetBytes) 1437
attr interpolationmode none
attr recordingmode sum(packetBytes)
attr source packetSentToLower
attr title "packets transmitted, sum(packetBytes)"
scalar ExtUeAppMecAppExample.upf.ppp[0].ppp rcvdPkFromHl:count 0
attr interpolationmode none
attr recordingmode count
attr source packetReceivedFromUpper
attr title "packets received from higher layer, count"
scalar ExtUeAppMecAppExample.upf.ppp[0].ppp rcvdPkFromHl:sum(packetBytes) 0
attr interpolationmode none
attr recordingmode sum(packetBytes)
attr source packetReceivedFromUpper
attr title "packets received from higher layer, sum(packetBytes)"
scalar ExtUeAppMecAppExample.upf.ppp[0].ppp passedUpPk:count 8
attr interpolationmode none
attr recordingmode count
attr source packetSentToUpper
attr title "packets passed to higher layer, count"
scalar ExtUeAppMecAppExample.upf.ppp[0].ppp passedUpPk:sum(packetBytes) 1204
attr interpolationmode none
attr recordingmode sum(packetBytes)
attr source packetSentToUpper
attr title "packets passed to higher layer, sum(packetBytes)"
scalar ExtUeAppMecAppExample.upf.ppp[0].ppp packetDropIncorrectlyReceived:count 0
attr interpolationmode none
attr recordingmode count
attr source packetDropReasonIsIncorrectlyReceived(packetDropped)
attr title "packet drop: incorrectly received, count"
scalar ExtUeAppMecAppExample.upf.ppp[0].ppp packetDropIncorrectlyReceived:sum(packetBytes) 0
attr interpolationmode none
attr recordingmode sum(packetBytes)
attr source packetDropReasonIsIncorrectlyReceived(packetDropped)
attr title "packet drop: incorrectly received, sum(packetBytes)"
scalar ExtUeAppMecAppExample.upf.ppp[0].ppp packetDropInterfaceDown:count 0
attr interpolationmode none
attr recordingmode count
attr source packetDropReasonIsInterfaceDown(packetDropped)
attr title "packet drop: interface down, count"
scalar ExtUeAppMecAppExample.upf.ppp[0].ppp packetDropInterfaceDown:sum(packetBytes) 0
attr interpolationmode none
attr recordingmode sum(packetBytes)
attr source packetDropReasonIsInterfaceDown(packetDropped)
attr title "packet drop: interface down, sum(packetBytes)"
par ExtUeAppMecAppExample.upf.ppp[0] typename "\"inet.linklayer.ppp.PppInterface\""
par ExtUeAppMecAppExample.upf.ppp[0] displayStringTextFormat "\"%a (%i)\\n%m\""
par ExtUeAppMecAppExample.upf.ppp[0] recordPcap false
par ExtUeAppMecAppExample.upf.ppp[0] numPcapRecorders 0
par ExtUeAppMecAppExample.upf.ppp[0] interfaceTableModule "\"ExtUeAppMecAppExample.upf.interfaceTable\""
scalar ExtUeAppMecAppExample.upf.ppp[0] packetDropInterfaceDown:count 0
attr interpolationmode none
attr recordingmode count
attr source packetDropReasonIsInterfaceDown(packetDropped)
attr title "packet drops: interface down, count"
scalar ExtUeAppMecAppExample.upf.ppp[0] packetDropInterfaceDown:sum(packetBytes) 0
attr interpolationmode none
attr recordingmode sum(packetBytes)
attr source packetDropReasonIsInterfaceDown(packetDropped)
attr title "packet drops: interface down, sum(packetBytes)"
scalar ExtUeAppMecAppExample.upf.ppp[0] packetDropNoCarrier:count 0
attr interpolationmode none
attr recordingmode count
attr source packetDropReasonIsNoCarrier(packetDropped)
attr title "packet drops: no carrier, count"
scalar ExtUeAppMecAppExample.upf.ppp[0] packetDropNoCarrier:sum(packetBytes) 0
attr interpolationmode none
attr recordingmode sum(packetBytes)
attr source packetDropReasonIsNoCarrier(packetDropped)
attr title "packet drops: no carrier, sum(packetBytes)"
par ExtUeAppMecAppExample.upf.ipv4.transportIn.channel typename "\"ned.IdealChannel\""
par ExtUeAppMecAppExample.upf.ipv4.up.out[0].channel typename "\"ned.IdealChannel\""
par ExtUeAppMecAppExample.upf.ipv4.lp.out[2].channel typename "\"ned.IdealChannel\""
par ExtUeAppMecAppExample.upf.ipv4.ifIn.channel typename "\"ned.IdealChannel\""
par ExtUeAppMecAppExample.upf.ipv4.configurator typename "\"inet.networklayer.configurator.ipv4.Ipv4NodeConfigurator\""
par ExtUeAppMecAppExample.upf.ipv4.configurator interfaceTableModule "\"ExtUeAppMecAppExample.upf.interfaceTable\""
par ExtUeAppMecAppExample.upf.ipv4.configurator routingTableModule "\"ExtUeAppMecAppExample.upf.ipv4.routingTable\""
par ExtUeAppMecAppExample.upf.ipv4.configurator networkConfiguratorModule "\"\""
par ExtUeAppMecAppExample.upf.ipv4.configurator configureRoutingTable true
par ExtUeAppMecAppExample.upf.ipv4.routingTable typename "\"inet.networklayer.ipv4.Ipv4RoutingTable\""
par ExtUeAppMecAppExample.upf.ipv4.routingTable interfaceTableModule "\"ExtUeAppMecAppExample.upf.interfaceTable\""
par ExtUeAppMecAppExample.upf.ipv4.routingTable routerId "\"auto\""
par ExtUeAppMecAppExample.upf.ipv4.routingTable netmaskRoutes "\"*\""
par ExtUeAppMecAppExample.upf.ipv4.routingTable forwarding true
par ExtUeAppMecAppExample.upf.ipv4.routingTable multicastForwarding false
par ExtUeAppMecAppExample.upf.ipv4.routingTable useAdminDist false
par ExtUeAppMecAppExample.upf.ipv4.routingTable routingFile "\"routing/upf.mrt\""
par ExtUeAppMecAppExample.upf.ipv4.natTable typename "\"inet.networklayer.ipv4.Ipv4NatTable\""
par ExtUeAppMecAppExample.upf.ipv4.natTable networkProtocolModule "\"^.ip\""
par ExtUeAppMecAppExample.upf.ipv4.natTable config "<config/> at content:1"
par ExtUeAppMecAppExample.upf.ipv4.up typename "\"inet.common.MessageDispatcher\""
par ExtUeAppMecAppExample.upf.ipv4.up displayStringTextFormat "\"processed %p pk (%l)\""
par ExtUeAppMecAppExample.upf.ipv4.up forwardServiceRegistration true
par ExtUeAppMecAppExample.upf.ipv4.up forwardProtocolRegistration true
par ExtUeAppMecAppExample.upf.ipv4.igmp typename "\"inet.networklayer.ipv4.Igmpv2\""
par ExtUeAppMecAppExample.upf.ipv4.igmp interfaceTableModule "\"ExtUeAppMecAppExample.upf.interfaceTable\""
par ExtUeAppMecAppExample.upf.ipv4.igmp routingTableModule "\"ExtUeAppMecAppExample.upf.ipv4.routingTable\""
par ExtUeAppMecAppExample.upf.ipv4.igmp crcMode "\"computed\""
attr enum declared,computed
par ExtUeAppMecAppExample.upf.ipv4.igmp enabled true
par ExtUeAppMecAppExample.upf.ipv4.igmp robustnessVariable 2
par ExtUeAppMecAppExample.upf.ipv4.igmp queryInterval 125s
attr unit s
par ExtUeAppMecAppExample.upf.ipv4.igmp queryResponseInterval 10s
attr unit s
par ExtUeAppMecAppExample.upf.ipv4.igmp groupMembershipInterval 260s
attr unit s
par ExtUeAppMecAppExample.upf.ipv4.igmp otherQuerierPresentInterval 255s
attr unit s
par ExtUeAppMecAppExample.upf.ipv4.igmp startupQueryInterval 31.25s
attr unit s
par ExtUeAppMecAppExample.upf.ipv4.igmp startupQueryCount 2
par ExtUeAppMecAppExample.upf.ipv4.igmp lastMemberQueryInterval 1s
attr unit s
par ExtUeAppMecAppExample.upf.ipv4.igmp lastMemberQueryCount 2
par ExtUeAppMecAppExample.upf.ipv4.igmp unsolicitedReportInterval 10s
attr unit s
par ExtUeAppMecAppExample.upf.ipv4.icmp typename "\"inet.networklayer.ipv4.Icmp\""
par ExtUeAppMecAppExample.upf.ipv4.icmp interfaceTableModule "\"ExtUeAppMecAppExample.upf.interfaceTable\""
par ExtUeAppMecAppExample.upf.ipv4.icmp routingTableModule "\"ExtUeAppMecAppExample.upf.ipv4.routingTable\""
par ExtUeAppMecAppExample.upf.ipv4.icmp crcMode "\"computed\""
attr enum declared,computed
attr mutable ""
par ExtUeAppMecAppExample.upf.ipv4.icmp quoteLength 8B
attr mutable ""
attr unit B
par ExtUeAppMecAppExample.upf.ipv4.mp typename "\"inet.common.MessageDispatcher\""
par ExtUeAppMecAppExample.upf.ipv4.mp displayStringTextFormat "\"processed %p pk (%l)\""
par ExtUeAppMecAppExample.upf.ipv4.mp forwardServiceRegistration true
par ExtUeAppMecAppExample.upf.ipv4.mp forwardProtocolRegistration true
par ExtUeAppMecAppExample.upf.ipv4.ip typename "\"inet.networklayer.ipv4.Ipv4\""
par ExtUeAppMecAppExample.upf.ipv4.ip interfaceTableModule "\"ExtUeAppMecAppExample.upf.interfaceTable\""
par ExtUeAppMecAppExample.upf.ipv4.ip routingTableModule "\"ExtUeAppMecAppExample.upf.ipv4.routingTable\""
par ExtUeAppMecAppExample.upf.ipv4.ip arpModule "\"ExtUeAppMecAppExample.upf.ipv4.arp\""
par ExtUeAppMecAppExample.upf.ipv4.ip icmpModule "\"ExtUeAppMecAppExample.upf.ipv4.icmp\""
par ExtUeAppMecAppExample.upf.ipv4.ip crcMode "\"computed\""
attr enum declared,computed
par ExtUeAppMecAppExample.upf.ipv4.ip timeToLive 32
par ExtUeAppMecAppExample.upf.ipv4.ip multicastTimeToLive 32
par ExtUeAppMecAppExample.upf.ipv4.ip fragmentTimeout 60s
attr unit s
par ExtUeAppMecAppExample.upf.ipv4.ip limitedBroadcast false
par ExtUeAppMecAppExample.upf.ipv4.ip directBroadcastInterfaces "\"\""
scalar ExtUeAppMecAppExample.upf.ipv4.ip packetDropAddressResolutionFailed:count 0
attr interpolationmode none
attr recordingmode count
attr source packetDropReasonIsAddressResolutionFailed(packetDropped)
attr title "packet drop: address resolution failed, count"
scalar ExtUeAppMecAppExample.upf.ipv4.ip packetDropAddressResolutionFailed:sum(packetBytes) 0
attr interpolationmode none
attr recordingmode sum(packetBytes)
attr source packetDropReasonIsAddressResolutionFailed(packetDropped)
attr title "packet drop: address resolution failed, sum(packetBytes)"
scalar ExtUeAppMecAppExample.upf.ipv4.ip packetDropHopLimitReached:count 0
attr interpolationmode none
attr recordingmode count
attr source packetDropReasonIsHopLimitReached(packetDropped)
attr title "packet drop: hop limit reached, count"
scalar ExtUeAppMecAppExample.upf.ipv4.ip packetDropHopLimitReached:sum(packetBytes) 0
attr interpolationmode none
attr recordingmode sum(packetBytes)
attr source packetDropReasonIsHopLimitReached(packetDropped)
attr title "packet drop: hop limit reached, sum(packetBytes)"
scalar ExtUeAppMecAppExample.upf.ipv4.ip packetDropForwardingDisabled:count 0
attr interpolationmode none
attr recordingmode count
attr source packetDropReasonIsForwardingDisabled(packetDropped)
attr title "packet drop: forwarding disabled, count"
scalar ExtUeAppMecAppExample.upf.ipv4.ip packetDropForwardingDisabled:sum(packetBytes) 0
attr interpolationmode none
attr recordingmode sum(packetBytes)
attr source packetDropReasonIsForwardingDisabled(packetDropped)
attr title "packet drop: forwarding disabled, sum(packetBytes)"
scalar ExtUeAppMecAppExample.upf.ipv4.ip packetDropNoInterfaceFound:count 0
attr interpolationmode none
attr recordingmode count
attr source packetDropReasonIsNoInterfaceFound(packetDropped)
attr title "packet drop: no interface found, count"
scalar ExtUeAppMecAppExample.upf.ipv4.ip packetDropNoInterfaceFound:sum(packetBytes) 0
attr interpolationmode none
attr recordingmode sum(packetBytes)
attr source packetDropReasonIsNoInterfaceFound(packetDropped)
attr title "packet drop: no interface found, sum(packetBytes)"
scalar ExtUeAppMecAppExample.upf.ipv4.ip packetDropNoRouteFound:count 0
attr interpolationmode none
attr recordingmode count
attr source packetDropReasonIsNoRouteFound(packetDropped)
attr title "packet drop: no route found, count"
scalar ExtUeAppMecAppExample.upf.ipv4.ip packetDropNoRouteFound:sum(packetBytes) 0
attr interpolationmode none
attr recordingmode sum(packetBytes)
attr source packetDropReasonIsNoRouteFound(packetDropped)
attr title "packet drop: no route found, sum(packetBytes)"
scalar ExtUeAppMecAppExample.upf.ipv4.ip packetDropUndefined:count 0
attr interpolationmode none
attr recordingmode count
attr source packetDropReasonIsUndefined(packetDropped)
attr title "packet drop: undefined, count"
scalar ExtUeAppMecAppExample.upf.ipv4.ip packetDropUndefined:sum(packetBytes) 0
attr interpolationmode none
attr recordingmode sum(packetBytes)
attr source packetDropReasonIsUndefined(packetDropped)
attr title "packet drop: undefined, sum(packetBytes)"
par ExtUeAppMecAppExample.upf.ipv4.arp typename "\"inet.networklayer.arp.ipv4.Arp\""
par ExtUeAppMecAppExample.upf.ipv4.arp interfaceTableModule "\"ExtUeAppMecAppExample.upf.interfaceTable\""
par ExtUeAppMecAppExample.upf.ipv4.arp routingTableModule "\"ExtUeAppMecAppExample.upf.ipv4.routingTable\""
par ExtUeAppMecAppExample.upf.ipv4.arp retryTimeout 1s
attr unit s
par ExtUeAppMecAppExample.upf.ipv4.arp retryCount 3
par ExtUeAppMecAppExample.upf.ipv4.arp cacheTimeout 120s
attr unit s
par ExtUeAppMecAppExample.upf.ipv4.arp proxyArpInterfaces "\"*\""
scalar ExtUeAppMecAppExample.upf.ipv4.arp arpResolutionFailed:count 0
attr recordingmode count
attr title "ARP failed resolutions, count"
scalar ExtUeAppMecAppExample.upf.ipv4.arp arpResolutionCompleted:count 0
attr recordingmode count
attr title "ARP completed resolutions, count"
scalar ExtUeAppMecAppExample.upf.ipv4.arp arpResolutionInitiated:count 0
attr recordingmode count
attr title "ARP initiated resolutions, count"
scalar ExtUeAppMecAppExample.upf.ipv4.arp arpReplySent:count 0
attr recordingmode count
attr source arpReplySent
attr title "ARP replies sent, count"
scalar ExtUeAppMecAppExample.upf.ipv4.arp arpReplySent:sum(packetBytes) 0
attr recordingmode sum(packetBytes)
attr source arpReplySent
attr title "ARP replies sent, sum(packetBytes)"
scalar ExtUeAppMecAppExample.upf.ipv4.arp arpRequestSent:count 0
attr recordingmode count
attr source arpRequestSent
attr title "ARP request sent, count"
scalar ExtUeAppMecAppExample.upf.ipv4.arp arpRequestSent:sum(packetBytes) 0
attr recordingmode sum(packetBytes)
attr source arpRequestSent
attr title "ARP request sent, sum(packetBytes)"
par ExtUeAppMecAppExample.upf.ipv4.lp typename "\"inet.common.MessageDispatcher\""
par ExtUeAppMecAppExample.upf.ipv4.lp displayStringTextFormat "\"processed %p pk (%l)\""
par ExtUeAppMecAppExample.upf.ipv4.lp forwardServiceRegistration true
par ExtUeAppMecAppExample.upf.ipv4.lp forwardProtocolRegistration true
par ExtUeAppMecAppExample.upf.ipv4 typename "\"inet.networklayer.ipv4.Ipv4NetworkLayer\""
par ExtUeAppMecAppExample.upf.ipv4 forwarding true
par ExtUeAppMecAppExample.upf.ipv4 multicastForwarding false
par ExtUeAppMecAppExample.upf.ipv4 interfaceTableModule "\"ExtUeAppMecAppExample.upf.interfaceTable\""
par ExtUeAppMecAppExample.upf.ipv4 displayStringTextFormat "\"%i\""
par ExtUeAppMecAppExample.upf.nl typename "\"inet.common.MessageDispatcher\""
par ExtUeAppMecAppExample.upf.nl displayStringTextFormat "\"processed %p pk (%l)\""
par ExtUeAppMecAppExample.upf.nl forwardServiceRegistration true
par ExtUeAppMecAppExample.upf.nl forwardProtocolRegistration true
par ExtUeAppMecAppExample.upf.pppIf.phys$i.channel typename "\"ned.IdealChannel\""
par ExtUeAppMecAppExample.upf.pppIf.ppp.phys$o.channel typename "\"ned.IdealChannel\""
par ExtUeAppMecAppExample.upf.pppIf.ppp.upperLayerOut.channel typename "\"ned.IdealChannel\""
par ExtUeAppMecAppExample.upf.pppIf.upperLayerIn.channel typename "\"ned.IdealChannel\""
par ExtUeAppMecAppExample.upf.pppIf.queue typename "\"inet.queueing.queue.DropTailQueue\""
par ExtUeAppMecAppExample.upf.pppIf.queue displayStringTextFormat "\"contains %p pk (%l) pushed %u\\npulled %o removed %r dropped %d\""
par ExtUeAppMecAppExample.upf.pppIf.queue packetCapacity 10000
par ExtUeAppMecAppExample.upf.pppIf.queue dataCapacity -1b
attr unit b
par ExtUeAppMecAppExample.upf.pppIf.queue dropperClass "\"inet::queueing::PacketAtCollectionEndDropper\""
par ExtUeAppMecAppExample.upf.pppIf.queue comparatorClass "\"\""
par ExtUeAppMecAppExample.upf.pppIf.queue bufferModule "\"\""
scalar ExtUeAppMecAppExample.upf.pppIf.queue queueLength:last 0
attr autoWarmupFilter false
attr interpolationmode sample-hold
attr recordingmode last
attr source "warmup(atomic(constant0(packetPushEnded) + count(packetPushStarted) - count(packetPulled) - count(packetRemoved) - count(packetDropped)))"
attr title "queue length, last"
attr unit pk
scalar ExtUeAppMecAppExample.upf.pppIf.queue queueLength:max 0
attr autoWarmupFilter false
attr interpolationmode sample-hold
attr recordingmode max
attr source "warmup(atomic(constant0(packetPushEnded) + count(packetPushStarted) - count(packetPulled) - count(packetRemoved) - count(packetDropped)))"
attr title "queue length, max"
attr unit pk
scalar ExtUeAppMecAppExample.upf.pppIf.queue queueLength:timeavg 0
attr autoWarmupFilter false
attr interpolationmode sample-hold
attr recordingmode timeavg
attr source "warmup(atomic(constant0(packetPushEnded) + count(packetPushStarted) - count(packetPulled) - count(packetRemoved) - count(packetDropped)))"
attr title "queue length, timeavg"
attr unit pk
scalar ExtUeAppMecAppExample.upf.pppIf.queue queueBitLength:last 0
attr autoWarmupFilter false
attr interpolationmode sample-hold
attr recordingmode last
attr source "warmup(atomic(constant0(packetPushEnded) + sum(packetLength(packetPushStarted)) - sum(packetLength(packetPulled)) - sum(packetLength(packetRemoved)) - sum(packetLength(packetDropped))))"
attr title "queue bit length, last"
attr unit b
scalar ExtUeAppMecAppExample.upf.pppIf.queue queueBitLength:max 0
attr autoWarmupFilter false
attr interpolationmode sample-hold
attr recordingmode max
attr source "warmup(atomic(constant0(packetPushEnded) + sum(packetLength(packetPushStarted)) - sum(packetLength(packetPulled)) - sum(packetLength(packetRemoved)) - sum(packetLength(packetDropped))))"
attr title "queue bit length, max"
attr unit b
scalar ExtUeAppMecAppExample.upf.pppIf.queue queueBitLength:timeavg 0
attr autoWarmupFilter false
attr interpolationmode sample-hold
attr recordingmode timeavg
attr source "warmup(atomic(constant0(packetPushEnded) + sum(packetLength(packetPushStarted)) - sum(packetLength(packetPulled)) - sum(packetLength(packetRemoved)) - sum(packetLength(packetDropped))))"
attr title "queue bit length, timeavg"
attr unit b
statistic ExtUeAppMecAppExample.upf.pppIf.queue queueingTime:histogram
field count 8
field mean 0
field stddev 0
field min 0
field max 0
field sum 0
field sqrsum 0
attr interpolationmode none
attr recordingmode histogram
attr source queueingTime(packetPulled)
attr title "queueing times"
attr unit s
bin	-inf	0
bin	-0.5	0
bin	-0.48	0
bin	-0.46	0
bin	-0.44	0
bin	-0.42	0
bin	-0.4	0
bin	-0.38	0
bin	-0.36	0
bin	-0.34	0
bin	-0.32	0
bin	-0.3	0
bin	-0.28	0
bin	-0.26	0
bin	-0.24	0
bin	-0.22	0
bin	-0.2	0
bin	-0.18	0
bin	-0.16	0
bin	-0.14	0
bin	-0.12	0
bin	-0.1	0
bin	-0.08	0
bin	-0.06	0
bin	-0.04	0
bin	-0.02	0
bin	0	8
bin	0.02	0
bin	0.04	0
bin	0.06	0
bin	0.08	0
bin	0.1	0
bin	0.12	0
bin	0.14	0
bin	0.16	0
bin	0.18	0
bin	0.2	0
bin	0.22	0
bin	0.24	0
bin	0.26	0
bin	0.28	0
bin	0.3	0
bin	0.32	0
bin	0.34	0
bin	0.36	0
bin	0.38	0
bin	0.4	0
bin	0.42	0
bin	0.44	0
bin	0.46	0
bin	0.48	0
bin	0.5	0
scalar ExtUeAppMecAppExample.upf.pppIf.queue outgoingPackets:count 8
attr recordingmode count
attr source packetPulled
attr title "outgoing packets, count"
attr unit pk
scalar ExtUeAppMecAppExample.upf.pppIf.queue outgoingPacketLengths:sum 7328
attr interpolationmode none
attr recordingmode sum
attr source packetLength(packetPulled)
attr title "outgoing packet lengths, sum"
attr unit b
statistic ExtUeAppMecAppExample.upf.pppIf.queue outgoingPacketLengths:histogram
field count 8
field mean 916
field stddev 906.52996168277
field min 320
field max 2760
field sum 7328
field sqrsum 12465024
attr interpolationmode none
attr recordingmode histogram
attr source packetLength(packetPulled)
attr title "outgoing packet lengths"
attr unit b
bin	-inf	0
bin	0	0
bin	50	0
bin	100	0
bin	150	0
bin	200	0
bin	250	0
bin	300	4
bin	350	1
bin	400	0
bin	450	0
bin	500	0
bin	550	0
bin	600	0
bin	650	0
bin	700	0
bin	750	0
bin	800	0
bin	850	0
bin	900	0
bin	950	0
bin	1000	0
bin	1050	0
bin	1100	0
bin	1150	0
bin	1200	0
bin	1250	0
bin	1300	0
bin	1350	0
bin	1400	1
bin	1450	0
bin	1500	1
bin	1550	0
bin	1600	0
bin	1650	0
bin	1700	0
bin	1750	0
bin	1800	0
bin	1850	0
bin	1900	0
bin	1950	0
bin	2000	0
bin	2050	0
bin	2100	0
bin	2150	0
bin	2200	0
bin	2250	0
bin	2300	0
bin	2350	0
bin	2400	0
bin	2450	0
bin	2500	0
bin	2550	0
bin	2600	0
bin	2650	0
bin	2700	0
bin	2750	1
bin	2800	0
bin	2850	0
bin	2900	0
bin	2950	0
bin	3000	0
bin	3050	0
bin	3100	0
bin	3150	0
bin	3200	0
bin	3250	0
bin	3300	0
bin	3350	0
bin	3400	0
statistic ExtUeAppMecAppExample.upf.pppIf.queue flowQueueingTime:histogram
field count 0
field mean -nan
field stddev nan
field min nan
field max nan
field sum 0
field sqrsum 0
attr interpolationmode none
attr recordingmode histogram
attr source queueingTime(demuxFlow(packetPulled))
attr title "flow queueing times"
attr unit s
bin	-inf	0
bin	0	0
bin	1	0
scalar ExtUeAppMecAppExample.upf.pppIf.queue incomingPackets:count 8
attr recordingmode count
attr source packetPushStarted
attr title "incoming packets, count"
attr unit pk
scalar ExtUeAppMecAppExample.upf.pppIf.queue incomingPacketLengths:sum 7328
attr interpolationmode none
attr recordingmode sum
attr source packetLength(packetPushStarted)
attr title "incoming packet lengths, sum"
attr unit b
statistic ExtUeAppMecAppExample.upf.pppIf.queue incomingPacketLengths:histogram
field count 8
field mean 916
field stddev 906.52996168277
field min 320
field max 2760
field sum 7328
field sqrsum 12465024
attr interpolationmode none
attr recordingmode histogram
attr source packetLength(packetPushStarted)
attr title "incoming packet lengths"
attr unit b
bin	-inf	0
bin	0	0
bin	50	0
bin	100	0
bin	150	0
bin	200	0
bin	250	0
bin	300	4
bin	350	1
bin	400	0
bin	450	0
bin	500	0
bin	550	0
bin	600	0
bin	650	0
bin	700	0
bin	750	0
bin	800	0
bin	850	0
bin	900	0
bin	950	0
bin	1000	0
bin	1050	0
bin	1100	0
bin	1150	0
bin	1200	0
bin	1250	0
bin	1300	0
bin	1350	0
bin	1400	1
bin	1450	0
bin	1500	1
bin	1550	0
bin	1600	0
bin	1650	0
bin	1700	0
bin	1750	0
bin	1800	0
bin	1850	0
bin	1900	0
bin	1950	0
bin	2000	0
bin	2050	0
bin	2100	0
bin	2150	0
bin	2200	0
bin	2250	0
bin	2300	0
bin	2350	0
bin	2400	0
bin	2450	0
bin	2500	0
bin	2550	0
bin	2600	0
bin	2650	0
bin	2700	0
bin	2750	1
bin	2800	0
bin	2850	0
bin	2900	0
bin	2950	0
bin	3000	0
bin	3050	0
bin	3100	0
bin	3150	0
bin	3200	0
bin	3250	0
bin	3300	0
bin	3350	0
bin	3400	0
scalar ExtUeAppMecAppExample.upf.pppIf.queue droppedPacketsQueueOverflow:count 0
attr interpolationmode none
attr recordingmode count
attr source packetDropReasonIsQueueOverflow(packetDropped)
attr title "dropped packets: queue overflow, count"
attr unit pk
scalar ExtUeAppMecAppExample.upf.pppIf.queue droppedPacketLengthsQueueOverflow:sum 0
attr interpolationmode none
attr recordingmode sum
attr source packetLength(packetDropReasonIsQueueOverflow(packetDropped))
attr title "dropped packet lengths: queue overflow, sum"
attr unit b
par ExtUeAppMecAppExample.upf.pppIf.ppp typename "\"inet.linklayer.ppp.Ppp\""
par ExtUeAppMecAppExample.upf.pppIf.ppp interfaceTableModule "\"ExtUeAppMecAppExample.upf.interfaceTable\""
par ExtUeAppMecAppExample.upf.pppIf.ppp displayStringTextFormat "\"rate: %b\\nsent: %s, rcvd: %r\\nqueue: %q, drop: %d\""
par ExtUeAppMecAppExample.upf.pppIf.ppp sendRawBytes false
par ExtUeAppMecAppExample.upf.pppIf.ppp mtu 4470B
attr unit B
par ExtUeAppMecAppExample.upf.pppIf.ppp stopOperationExtraTime -1s
attr unit s
par ExtUeAppMecAppExample.upf.pppIf.ppp stopOperationTimeout 2s
attr unit s
scalar ExtUeAppMecAppExample.upf.pppIf.ppp transmissionState:timeavg 1.944e-08
attr interpolationmode sample-hold
attr recordingmode timeavg
attr source transmissionStateChanged
attr title "tx state, timeavg"
scalar ExtUeAppMecAppExample.upf.pppIf.ppp rxPkOk:count 7
attr interpolationmode none
attr recordingmode count
attr source rxPkOk
attr title "packets received OK, count"
scalar ExtUeAppMecAppExample.upf.pppIf.ppp rxPkOk:sum(packetBytes) 1185
attr interpolationmode none
attr recordingmode sum(packetBytes)
attr source rxPkOk
attr title "packets received OK, sum(packetBytes)"
scalar ExtUeAppMecAppExample.upf.pppIf.ppp txPk:count 8
attr interpolationmode none
attr recordingmode count
attr source packetSentToLower
attr title "packets transmitted, count"
scalar ExtUeAppMecAppExample.upf.pppIf.ppp txPk:sum(packetBytes) 972
attr interpolationmode none
attr recordingmode sum(packetBytes)
attr source packetSentToLower
attr title "packets transmitted, sum(packetBytes)"
scalar ExtUeAppMecAppExample.upf.pppIf.ppp rcvdPkFromHl:count 0
attr interpolationmode none
attr recordingmode count
attr source packetReceivedFromUpper
attr title "packets received from higher layer, count"
scalar ExtUeAppMecAppExample.upf.pppIf.ppp rcvdPkFromHl:sum(packetBytes) 0
attr interpolationmode none
attr recordingmode sum(packetBytes)
attr source packetReceivedFromUpper
attr title "packets received from higher layer, sum(packetBytes)"
scalar ExtUeAppMecAppExample.upf.pppIf.ppp passedUpPk:count 7
attr interpolationmode none
attr recordingmode count
attr source packetSentToUpper
attr title "packets passed to higher layer, count"
scalar ExtUeAppMecAppExample.upf.pppIf.ppp passedUpPk:sum(packetBytes) 1136
attr interpolationmode none
attr recordingmode sum(packetBytes)
attr source packetSentToUpper
attr title "packets passed to higher layer, sum(packetBytes)"
scalar ExtUeAppMecAppExample.upf.pppIf.ppp packetDropIncorrectlyReceived:count 0
attr interpolationmode none
attr recordingmode count
attr source packetDropReasonIsIncorrectlyReceived(packetDropped)
attr title "packet drop: incorrectly received, count"
scalar ExtUeAppMecAppExample.upf.pppIf.ppp packetDropIncorrectlyReceived:sum(packetBytes) 0
attr interpolationmode none
attr recordingmode sum(packetBytes)
attr source packetDropReasonIsIncorrectlyReceived(packetDropped)
attr title "packet drop: incorrectly received, sum(packetBytes)"
scalar ExtUeAppMecAppExample.upf.pppIf.ppp packetDropInterfaceDown:count 0
attr interpolationmode none
attr recordingmode count
attr source packetDropReasonIsInterfaceDown(packetDropped)
attr title "packet drop: interface down, count"
scalar ExtUeAppMecAppExample.upf.pppIf.ppp packetDropInterfaceDown:sum(packetBytes) 0
attr interpolationmode none
attr recordingmode sum(packetBytes)
attr source packetDropReasonIsInterfaceDown(packetDropped)
attr title "packet drop: interface down, sum(packetBytes)"
par ExtUeAppMecAppExample.upf.pppIf typename "\"inet.linklayer.ppp.PppInterface\""
par ExtUeAppMecAppExample.upf.pppIf displayStringTextFormat "\"%a (%i)\\n%m\""
par ExtUeAppMecAppExample.upf.pppIf recordPcap false
par ExtUeAppMecAppExample.upf.pppIf numPcapRecorders 0
par ExtUeAppMecAppExample.upf.pppIf interfaceTableModule "\"ExtUeAppMecAppExample.upf.interfaceTable\""
scalar ExtUeAppMecAppExample.upf.pppIf packetDropInterfaceDown:count 0
attr interpolationmode none
attr recordingmode count
attr source packetDropReasonIsInterfaceDown(packetDropped)
attr title "packet drops: interface down, count"
scalar ExtUeAppMecAppExample.upf.pppIf packetDropInterfaceDown:sum(packetBytes) 0
attr interpolationmode none
attr recordingmode sum(packetBytes)
attr source packetDropReasonIsInterfaceDown(packetDropped)
attr title "packet drops: interface down, sum(packetBytes)"
scalar ExtUeAppMecAppExample.upf.pppIf packetDropNoCarrier:count 0
attr interpolationmode none
attr recordingmode count
attr source packetDropReasonIsNoCarrier(packetDropped)
attr title "packet drops: no carrier, count"
scalar ExtUeAppMecAppExample.upf.pppIf packetDropNoCarrier:sum(packetBytes) 0
attr interpolationmode none
attr recordingmode sum(packetBytes)
attr source packetDropReasonIsNoCarrier(packetDropped)
attr title "packet drops: no carrier, sum(packetBytes)"
par ExtUeAppMecAppExample.upf.udp.crcInsertion typename "\"inet.transportlayer.udp.UdpCrcInsertionHook\""
par ExtUeAppMecAppExample.upf.udp typename "\"inet.transportlayer.udp.Udp\""
par ExtUeAppMecAppExample.upf.udp interfaceTableModule "\"ExtUeAppMecAppExample.upf.interfaceTable\""
par ExtUeAppMecAppExample.upf.udp icmpModule "\"^.ipv4.icmp\""
par ExtUeAppMecAppExample.upf.udp icmpv6Module "\"^.ipv6.icmpv6\""
par ExtUeAppMecAppExample.upf.udp crcMode "\"computed\""
attr enum disabled,declared,computed
par ExtUeAppMecAppExample.upf.udp defaultMulticastLoop true
scalar ExtUeAppMecAppExample.upf.udp packetReceived:count 8
attr interpolationmode none
attr recordingmode count
attr source packetReceived
attr title "packets received, count"
scalar ExtUeAppMecAppExample.upf.udp packetReceived:sum(packetBytes) 1044
attr interpolationmode none
attr recordingmode sum(packetBytes)
attr source packetReceived
attr title "packets received, sum(packetBytes)"
scalar ExtUeAppMecAppExample.upf.udp packetSent:count 7
attr interpolationmode none
attr recordingmode count
attr source packetSent
attr title "packets sent, count"
scalar ExtUeAppMecAppExample.upf.udp packetSent:sum(packetBytes) 1248
attr interpolationmode none
attr recordingmode sum(packetBytes)
attr source packetSent
attr title "packets sent, sum(packetBytes)"
scalar ExtUeAppMecAppExample.upf.udp passedUpPk:count 8
attr interpolationmode none
attr recordingmode count
attr source packetSentToUpper
attr title "packets passed up, count"
scalar ExtUeAppMecAppExample.upf.udp droppedPkWrongPort:count 0
attr interpolationmode none
attr recordingmode count
attr source packetDropReasonIsNoPortFound(packetDropped)
attr title "packets dropped (wrong port), count"
scalar ExtUeAppMecAppExample.upf.udp droppedPkBadChecksum:count 0
attr interpolationmode none
attr recordingmode count
attr source packetDropReasonIsIncorrectlyReceived(packetDropped)
attr title "packets dropped (checksum error), count"
par ExtUeAppMecAppExample.upf.trafficFlowFilter typename "\"simu5g.corenetwork.trafficFlowFilter.TrafficFlowFilter\""
par ExtUeAppMecAppExample.upf.trafficFlowFilter ownerType "\"UPF\""
par ExtUeAppMecAppExample.upf.trafficFlowFilter fastForwarding true
par ExtUeAppMecAppExample.upf.gtp_user typename "\"simu5g.corenetwork.gtp.GtpUser\""
par ExtUeAppMecAppExample.upf.gtp_user interfaceTableModule "\"ExtUeAppMecAppExample.upf.interfaceTable\""
par ExtUeAppMecAppExample.upf.gtp_user ipOutInterface "\"\""
par ExtUeAppMecAppExample.upf.gtp_user localPort 31
par ExtUeAppMecAppExample.upf.gtp_user tunnelPeerPort 31
par ExtUeAppMecAppExample.upf.gtp_user filter true
par ExtUeAppMecAppExample.upf.tn typename "\"inet.common.MessageDispatcher\""
par ExtUeAppMecAppExample.upf.tn displayStringTextFormat "\"processed %p pk (%l)\""
par ExtUeAppMecAppExample.upf.tn forwardServiceRegistration true
par ExtUeAppMecAppExample.upf.tn forwardProtocolRegistration true
par ExtUeAppMecAppExample.upf.at typename "\"inet.common.MessageDispatcher\""
par ExtUeAppMecAppExample.upf.at displayStringTextFormat "\"processed %p pk (%l)\""
par ExtUeAppMecAppExample.upf.at forwardServiceRegistration true
par ExtUeAppMecAppExample.upf.at forwardProtocolRegistration true
par ExtUeAppMecAppExample.upf typename "\"simu5g.nodes.Upf\""
par ExtUeAppMecAppExample.upf hasStatus false
par ExtUeAppMecAppExample.upf osgModel "\"\""
par ExtUeAppMecAppExample.upf osgModelColor "\"\""
par ExtUeAppMecAppExample.upf canvasImage "\"\""
par ExtUeAppMecAppExample.upf canvasImageColor "\"\""
par ExtUeAppMecAppExample.upf recordPcap false
par ExtUeAppMecAppExample.upf numPcapRecorders 0
par ExtUeAppMecAppExample.upf numLoInterfaces 1
par ExtUeAppMecAppExample.upf numWlanInterfaces 0
par ExtUeAppMecAppExample.upf numEthInterfaces 0
par ExtUeAppMecAppExample.upf numPppInterfaces 0
par ExtUeAppMecAppExample.upf numTunInterfaces 0
par ExtUeAppMecAppExample.upf numVirtInterfaces 0
par ExtUeAppMecAppExample.upf fcsMode "\"computed\""
attr enum declared,computed
par ExtUeAppMecAppExample.upf hasIpv4 true
par ExtUeAppMecAppExample.upf hasIpv6 false
par ExtUeAppMecAppExample.upf hasGn false
par ExtUeAppMecAppExample.upf forwarding true
par ExtUeAppMecAppExample.upf multicastForwarding false
par ExtUeAppMecAppExample.upf nodeType "\"UPF\""
par ExtUeAppMecAppExample.iUpf.pppg$i[0].channel typename "\"ned.IdealChannel\""
par ExtUeAppMecAppExample.iUpf.ppp[0].phys$o.channel typename "\"ned.IdealChannel\""
par ExtUeAppMecAppExample.iUpf.pppg$i[1].channel typename "\"ned.IdealChannel\""
par ExtUeAppMecAppExample.iUpf.ppp[1].phys$o.channel typename "\"ned.IdealChannel\""
par ExtUeAppMecAppExample.iUpf.pppg$i[2].channel typename "\"ned.IdealChannel\""
par ExtUeAppMecAppExample.iUpf.ppp[2].phys$o.channel typename "\"ned.IdealChannel\""
par ExtUeAppMecAppExample.iUpf.interfaceTable typename "\"inet.networklayer.common.InterfaceTable\""
par ExtUeAppMecAppExample.iUpf.interfaceTable displayAddresses false
par ExtUeAppMecAppExample.iUpf.cb typename "\"inet.common.MessageDispatcher\""
par ExtUeAppMecAppExample.iUpf.cb displayStringTextFormat "\"processed %p pk (%l)\""
par ExtUeAppMecAppExample.iUpf.cb forwardServiceRegistration true
par ExtUeAppMecAppExample.iUpf.cb forwardProtocolRegistration true
par ExtUeAppMecAppExample.iUpf.bl typename "\"inet.common.MessageDispatcher\""
par ExtUeAppMecAppExample.iUpf.bl displayStringTextFormat "\"processed %p pk (%l)\""
par ExtUeAppMecAppExample.iUpf.bl forwardServiceRegistration true
par ExtUeAppMecAppExample.iUpf.bl forwardProtocolRegistration true
par ExtUeAppMecAppExample.iUpf.li typename "\"inet.common.MessageDispatcher\""
par ExtUeAppMecAppExample.iUpf.li displayStringTextFormat "\"processed %p pk (%l)\""
par ExtUeAppMecAppExample.iUpf.li forwardServiceRegistration true
par ExtUeAppMecAppExample.iUpf.li forwardProtocolRegistration true
par ExtUeAppMecAppExample.iUpf.lo[0].upperLayerIn.channel typename "\"ned.IdealChannel\""
par ExtUeAppMecAppExample.iUpf.lo[0].lo.upperLayerOut.channel typename "\"ned.IdealChannel\""
par ExtUeAppMecAppExample.iUpf.lo[0].lo typename "\"inet.linklayer.loopback.Loopback\""
par ExtUeAppMecAppExample.iUpf.lo[0].lo interfaceTableModule "\"ExtUeAppMecAppExample.iUpf.interfaceTable\""
par ExtUeAppMecAppExample.iUpf.lo[0].lo mtu 4470B
attr unit B
scalar ExtUeAppMecAppExample.iUpf.lo[0].lo rcvdPkFromHl:count 0
attr interpolationmode none
attr recordingmode count
attr source packetReceivedFromUpper
attr title "packets received from higher layer, count"
scalar ExtUeAppMecAppExample.iUpf.lo[0].lo rcvdPkFromHl:sum(packetBytes) 0
attr interpolationmode none
attr recordingmode sum(packetBytes)
attr source packetReceivedFromUpper
attr title "packets received from higher layer, sum(packetBytes)"
scalar ExtUeAppMecAppExample.iUpf.lo[0].lo passedUpPk:count 0
attr interpolationmode none
attr recordingmode count
attr source packetSentToUpper
attr title "packets passed to higher layer, count"
scalar ExtUeAppMecAppExample.iUpf.lo[0].lo passedUpPk:sum(packetBytes) 0
attr interpolationmode none
attr recordingmode sum(packetBytes)
attr source packetSentToUpper
attr title "packets passed to higher layer, sum(packetBytes)"
par ExtUeAppMecAppExample.iUpf.lo[0] typename "\"inet.linklayer.loopback.LoopbackInterface\""
par ExtUeAppMecAppExample.iUpf.lo[0] displayStringTextFormat "\"%a (%i)\\n%m\""
par ExtUeAppMecAppExample.iUpf.lo[0] recordPcap false
par ExtUeAppMecAppExample.iUpf.lo[0] numPcapRecorders 0
par ExtUeAppMecAppExample.iUpf.lo[0] interfaceTableModule "\"ExtUeAppMecAppExample.iUpf.interfaceTable\""
scalar ExtUeAppMecAppExample.iUpf.lo[0] packetDropInterfaceDown:count 0
attr interpolationmode none
attr recordingmode count
attr source packetDropReasonIsInterfaceDown(packetDropped)
attr title "packet drops: interface down, count"
scalar ExtUeAppMecAppExample.iUpf.lo[0] packetDropInterfaceDown:sum(packetBytes) 0
attr interpolationmode none
attr recordingmode sum(packetBytes)
attr source packetDropReasonIsInterfaceDown(packetDropped)
attr title "packet drops: interface down, sum(packetBytes)"
scalar ExtUeAppMecAppExample.iUpf.lo[0] packetDropNoCarrier:count 0
attr interpolationmode none
attr recordingmode count
attr source packetDropReasonIsNoCarrier(packetDropped)
attr title "packet drops: no carrier, count"
scalar ExtUeAppMecAppExample.iUpf.lo[0] packetDropNoCarrier:sum(packetBytes) 0
attr interpolationmode none
attr recordingmode sum(packetBytes)
attr source packetDropReasonIsNoCarrier(packetDropped)
attr title "packet drops: no carrier, sum(packetBytes)"
par ExtUeAppMecAppExample.iUpf.ppp[0].phys$i.channel typename "\"ned.IdealChannel\""
par ExtUeAppMecAppExample.iUpf.ppp[0].ppp.phys$o.channel typename "\"ned.IdealChannel\""
par ExtUeAppMecAppExample.iUpf.ppp[0].ppp.upperLayerOut.channel typename "\"ned.IdealChannel\""
par ExtUeAppMecAppExample.iUpf.ppp[0].upperLayerIn.channel typename "\"ned.IdealChannel\""
par ExtUeAppMecAppExample.iUpf.ppp[0].queue typename "\"inet.queueing.queue.DropTailQueue\""
par ExtUeAppMecAppExample.iUpf.ppp[0].queue displayStringTextFormat "\"contains %p pk (%l) pushed %u\\npulled %o removed %r dropped %d\""
par ExtUeAppMecAppExample.iUpf.ppp[0].queue packetCapacity 10000
par ExtUeAppMecAppExample.iUpf.ppp[0].queue dataCapacity -1b
attr unit b
par ExtUeAppMecAppExample.iUpf.ppp[0].queue dropperClass "\"inet::queueing::PacketAtCollectionEndDropper\""
par ExtUeAppMecAppExample.iUpf.ppp[0].queue comparatorClass "\"\""
par ExtUeAppMecAppExample.iUpf.ppp[0].queue bufferModule "\"\""
scalar ExtUeAppMecAppExample.iUpf.ppp[0].queue queueLength:last 0
attr autoWarmupFilter false
attr interpolationmode sample-hold
attr recordingmode last
attr source "warmup(atomic(constant0(packetPushEnded) + count(packetPushStarted) - count(packetPulled) - count(packetRemoved) - count(packetDropped)))"
attr title "queue length, last"
attr unit pk
scalar ExtUeAppMecAppExample.iUpf.ppp[0].queue queueLength:max 0
attr autoWarmupFilter false
attr interpolationmode sample-hold
attr recordingmode max
attr source "warmup(atomic(constant0(packetPushEnded) + count(packetPushStarted) - count(packetPulled) - count(packetRemoved) - count(packetDropped)))"
attr title "queue length, max"
attr unit pk
scalar ExtUeAppMecAppExample.iUpf.ppp[0].queue queueLength:timeavg 0
attr autoWarmupFilter false
attr interpolationmode sample-hold
attr recordingmode timeavg
attr source "warmup(atomic(constant0(packetPushEnded) + count(packetPushStarted) - count(packetPulled) - count(packetRemoved) - count(packetDropped)))"
attr title "queue length, timeavg"
attr unit pk
scalar ExtUeAppMecAppExample.iUpf.ppp[0].queue queueBitLength:last 0
attr autoWarmupFilter false
attr interpolationmode sample-hold
attr recordingmode last
attr source "warmup(atomic(constant0(packetPushEnded) + sum(packetLength(packetPushStarted)) - sum(packetLength(packetPulled)) - sum(packetLength(packetRemoved)) - sum(packetLength(packetDropped))))"
attr title "queue bit length, last"
attr unit b
scalar ExtUeAppMecAppExample.iUpf.ppp[0].queue queueBitLength:max 0
attr autoWarmupFilter false
attr interpolationmode sample-hold
attr recordingmode max
attr source "warmup(atomic(constant0(packetPushEnded) + sum(packetLength(packetPushStarted)) - sum(packetLength(packetPulled)) - sum(packetLength(packetRemoved)) - sum(packetLength(packetDropped))))"
attr title "queue bit length, max"
attr unit b
scalar ExtUeAppMecAppExample.iUpf.ppp[0].queue queueBitLength:timeavg 0
attr autoWarmupFilter false
attr interpolationmode sample-hold
attr recordingmode timeavg
attr source "warmup(atomic(constant0(packetPushEnded) + sum(packetLength(packetPushStarted)) - sum(packetLength(packetPulled)) - sum(packetLength(packetRemoved)) - sum(packetLength(packetDropped))))"
attr title "queue bit length, timeavg"
attr unit b
statistic ExtUeAppMecAppExample.iUpf.ppp[0].queue queueingTime:histogram
field count 9
field mean 0
field stddev 0
field min 0
field max 0
field sum 0
field sqrsum 0
attr interpolationmode none
attr recordingmode histogram
attr source queueingTime(packetPulled)
attr title "queueing times"
attr unit s
bin	-inf	0
bin	-0.5	0
bin	-0.48	0
bin	-0.46	0
bin	-0.44	0
bin	-0.42	0
bin	-0.4	0
bin	-0.38	0
bin	-0.36	0
bin	-0.34	0
bin	-0.32	0
bin	-0.3	0
bin	-0.28	0
bin	-0.26	0
bin	-0.24	0
bin	-0.22	0
bin	-0.2	0
bin	-0.18	0
bin	-0.16	0
bin	-0.14	0
bin	-0.12	0
bin	-0.1	0
bin	-0.08	0
bin	-0.06	0
bin	-0.04	0
bin	-0.02	0
bin	0	9
bin	0.02	0
bin	0.04	0
bin	0.06	0
bin	0.08	0
bin	0.1	0
bin	0.12	0
bin	0.14	0
bin	0.16	0
bin	0.18	0
bin	0.2	0
bin	0.22	0
bin	0.24	0
bin	0.26	0
bin	0.28	0
bin	0.3	0
bin	0.32	0
bin	0.34	0
bin	0.36	0
bin	0.38	0
bin	0.4	0
bin	0.42	0
bin	0.44	0
bin	0.46	0
bin	0.48	0
bin	0.5	0
scalar ExtUeAppMecAppExample.iUpf.ppp[0].queue outgoingPackets:count 9
attr recordingmode count
attr source packetPulled
attr title "outgoing packets, count"
attr unit pk
scalar ExtUeAppMecAppExample.iUpf.ppp[0].queue outgoingPacketLengths:sum 12528
attr interpolationmode none
attr recordingmode sum
attr source packetLength(packetPulled)
attr title "outgoing packet lengths, sum"
attr unit b
statistic ExtUeAppMecAppExample.iUpf.ppp[0].queue outgoingPacketLengths:histogram
field count 9
field mean 1392
field stddev 1333.32666665
field min 608
field max 4112
field sum 12528
field sqrsum 31661056
attr interpolationmode none
attr recordingmode histogram
attr source packetLength(packetPulled)
attr title "outgoing packet lengths"
attr unit b
bin	-inf	0
bin	0	0
bin	100	0
bin	200	0
bin	300	0
bin	400	0
bin	500	0
bin	600	5
bin	700	1
bin	800	0
bin	900	0
bin	1000	0
bin	1100	0
bin	1200	1
bin	1300	0
bin	1400	0
bin	1500	0
bin	1600	0
bin	1700	0
bin	1800	0
bin	1900	0
bin	2000	0
bin	2100	0
bin	2200	0
bin	2300	0
bin	2400	0
bin	2500	0
bin	2600	0
bin	2700	0
bin	2800	0
bin	2900	0
bin	3000	0
bin	3100	0
bin	3200	1
bin	3300	0
bin	3400	0
bin	3500	0
bin	3600	0
bin	3700	0
bin	3800	0
bin	3900	0
bin	4000	0
bin	4100	1
bin	4200	0
bin	4300	0
bin	4400	0
bin	4500	0
bin	4600	0
bin	4700	0
bin	4800	0
bin	4900	0
bin	5000	0
statistic ExtUeAppMecAppExample.iUpf.ppp[0].queue flowQueueingTime:histogram
field count 0
field mean -nan
field stddev nan
field min nan
field max nan
field sum 0
field sqrsum 0
attr interpolationmode none
attr recordingmode histogram
attr source queueingTime(demuxFlow(packetPulled))
attr title "flow queueing times"
attr unit s
bin	-inf	0
bin	0	0
bin	1	0
scalar ExtUeAppMecAppExample.iUpf.ppp[0].queue incomingPackets:count 9
attr recordingmode count
attr source packetPushStarted
attr title "incoming packets, count"
attr unit pk
scalar ExtUeAppMecAppExample.iUpf.ppp[0].queue incomingPacketLengths:sum 12528
attr interpolationmode none
attr recordingmode sum
attr source packetLength(packetPushStarted)
attr title "incoming packet lengths, sum"
attr unit b
statistic ExtUeAppMecAppExample.iUpf.ppp[0].queue incomingPacketLengths:histogram
field count 9
field mean 1392
field stddev 1333.32666665
field min 608
field max 4112
field sum 12528
field sqrsum 31661056
attr interpolationmode none
attr recordingmode histogram
attr source packetLength(packetPushStarted)
attr title "incoming packet lengths"
attr unit b
bin	-inf	0
bin	0	0
bin	100	0
bin	200	0
bin	300	0
bin	400	0
bin	500	0
bin	600	5
bin	700	1
bin	800	0
bin	900	0
bin	1000	0
bin	1100	0
bin	1200	1
bin	1300	0
bin	1400	0
bin	1500	0
bin	1600	0
bin	1700	0
bin	1800	0
bin	1900	0
bin	2000	0
bin	2100	0
bin	2200	0
bin	2300	0
bin	2400	0
bin	2500	0
bin	2600	0
bin	2700	0
bin	2800	0
bin	2900	0
bin	3000	0
bin	3100	0
bin	3200	1
bin	3300	0
bin	3400	0
bin	3500	0
bin	3600	0
bin	3700	0
bin	3800	0
bin	3900	0
bin	4000	0
bin	4100	1
bin	4200	0
bin	4300	0
bin	4400	0
bin	4500	0
bin	4600	0
bin	4700	0
bin	4800	0
bin	4900	0
bin	5000	0
scalar ExtUeAppMecAppExample.iUpf.ppp[0].queue droppedPacketsQueueOverflow:count 0
attr interpolationmode none
attr recordingmode count
attr source packetDropReasonIsQueueOverflow(packetDropped)
attr title "dropped packets: queue overflow, count"
attr unit pk
scalar ExtUeAppMecAppExample.iUpf.ppp[0].queue droppedPacketLengthsQueueOverflow:sum 0
attr interpolationmode none
attr recordingmode sum
attr source packetLength(packetDropReasonIsQueueOverflow(packetDropped))
attr title "dropped packet lengths: queue overflow, sum"
attr unit b
par ExtUeAppMecAppExample.iUpf.ppp[0].ppp typename "\"inet.linklayer.ppp.Ppp\""
par ExtUeAppMecAppExample.iUpf.ppp[0].ppp interfaceTableModule "\"ExtUeAppMecAppExample.iUpf.interfaceTable\""
par ExtUeAppMecAppExample.iUpf.ppp[0].ppp displayStringTextFormat "\"rate: %b\\nsent: %s, rcvd: %r\\nqueue: %q, drop: %d\""
par ExtUeAppMecAppExample.iUpf.ppp[0].ppp sendRawBytes false
par ExtUeAppMecAppExample.iUpf.ppp[0].ppp mtu 4470B
attr unit B
par ExtUeAppMecAppExample.iUpf.ppp[0].ppp stopOperationExtraTime -1s
attr unit s
par ExtUeAppMecAppExample.iUpf.ppp[0].ppp stopOperationTimeout 2s
attr unit s
scalar ExtUeAppMecAppExample.iUpf.ppp[0].ppp transmissionState:timeavg 3.258e-08
attr interpolationmode sample-hold
attr recordingmode timeavg
attr source transmissionStateChanged
attr title "tx state, timeavg"
scalar ExtUeAppMecAppExample.iUpf.ppp[0].ppp rxPkOk:count 9
attr interpolationmode none
attr recordingmode count
attr source rxPkOk
attr title "packets received OK, count"
scalar ExtUeAppMecAppExample.iUpf.ppp[0].ppp rxPkOk:sum(packetBytes) 1343
attr interpolationmode none
attr recordingmode sum(packetBytes)
attr source rxPkOk
attr title "packets received OK, sum(packetBytes)"
scalar ExtUeAppMecAppExample.iUpf.ppp[0].ppp txPk:count 9
attr interpolationmode none
attr recordingmode count
attr source packetSentToLower
attr title "packets transmitted, count"
scalar ExtUeAppMecAppExample.iUpf.ppp[0].ppp txPk:sum(packetBytes) 1629
attr interpolationmode none
attr recordingmode sum(packetBytes)
attr source packetSentToLower
attr title "packets transmitted, sum(packetBytes)"
scalar ExtUeAppMecAppExample.iUpf.ppp[0].ppp rcvdPkFromHl:count 0
attr interpolationmode none
attr recordingmode count
attr source packetReceivedFromUpper
attr title "packets received from higher layer, count"
scalar ExtUeAppMecAppExample.iUpf.ppp[0].ppp rcvdPkFromHl:sum(packetBytes) 0
attr interpolationmode none
attr recordingmode sum(packetBytes)
attr source packetReceivedFromUpper
attr title "packets received from higher layer, sum(packetBytes)"
scalar ExtUeAppMecAppExample.iUpf.ppp[0].ppp passedUpPk:count 9
attr interpolationmode none
attr recordingmode count
attr source packetSentToUpper
attr title "packets passed to higher layer, count"
scalar ExtUeAppMecAppExample.iUpf.ppp[0].ppp passedUpPk:sum(packetBytes) 1280
attr interpolationmode none
attr recordingmode sum(packetBytes)
attr source packetSentToUpper
attr title "packets passed to higher layer, sum(packetBytes)"
scalar ExtUeAppMecAppExample.iUpf.ppp[0].ppp packetDropIncorrectlyReceived:count 0
attr interpolationmode none
attr recordingmode count
attr source packetDropReasonIsIncorrectlyReceived(packetDropped)
attr title "packet drop: incorrectly received, count"
scalar ExtUeAppMecAppExample.iUpf.ppp[0].ppp packetDropIncorrectlyReceived:sum(packetBytes) 0
attr interpolationmode none
attr recordingmode sum(packetBytes)
attr source packetDropReasonIsIncorrectlyReceived(packetDropped)
attr title "packet drop: incorrectly received, sum(packetBytes)"
scalar ExtUeAppMecAppExample.iUpf.ppp[0].ppp packetDropInterfaceDown:count 0
attr interpolationmode none
attr recordingmode count
attr source packetDropReasonIsInterfaceDown(packetDropped)
attr title "packet drop: interface down, count"
scalar ExtUeAppMecAppExample.iUpf.ppp[0].ppp packetDropInterfaceDown:sum(packetBytes) 0
attr interpolationmode none
attr recordingmode sum(packetBytes)
attr source packetDropReasonIsInterfaceDown(packetDropped)
attr title "packet drop: interface down, sum(packetBytes)"
par ExtUeAppMecAppExample.iUpf.ppp[0] typename "\"inet.linklayer.ppp.PppInterface\""
par ExtUeAppMecAppExample.iUpf.ppp[0] displayStringTextFormat "\"%a (%i)\\n%m\""
par ExtUeAppMecAppExample.iUpf.ppp[0] recordPcap false
par ExtUeAppMecAppExample.iUpf.ppp[0] numPcapRecorders 0
par ExtUeAppMecAppExample.iUpf.ppp[0] interfaceTableModule "\"ExtUeAppMecAppExample.iUpf.interfaceTable\""
scalar ExtUeAppMecAppExample.iUpf.ppp[0] packetDropInterfaceDown:count 0
attr interpolationmode none
attr recordingmode count
attr source packetDropReasonIsInterfaceDown(packetDropped)
attr title "packet drops: interface down, count"
scalar ExtUeAppMecAppExample.iUpf.ppp[0] packetDropInterfaceDown:sum(packetBytes) 0
attr interpolationmode none
attr recordingmode sum(packetBytes)
attr source packetDropReasonIsInterfaceDown(packetDropped)
attr title "packet drops: interface down, sum(packetBytes)"
scalar ExtUeAppMecAppExample.iUpf.ppp[0] packetDropNoCarrier:count 0
attr interpolationmode none
attr recordingmode count
attr source packetDropReasonIsNoCarrier(packetDropped)
attr title "packet drops: no carrier, count"
scalar ExtUeAppMecAppExample.iUpf.ppp[0] packetDropNoCarrier:sum(packetBytes) 0
attr interpolationmode none
attr recordingmode sum(packetBytes)
attr source packetDropReasonIsNoCarrier(packetDropped)
attr title "packet drops: no carrier, sum(packetBytes)"
par ExtUeAppMecAppExample.iUpf.ppp[1].phys$i.channel typename "\"ned.IdealChannel\""
par ExtUeAppMecAppExample.iUpf.ppp[1].ppp.phys$o.channel typename "\"ned.IdealChannel\""
par ExtUeAppMecAppExample.iUpf.ppp[1].ppp.upperLayerOut.channel typename "\"ned.IdealChannel\""
par ExtUeAppMecAppExample.iUpf.ppp[1].upperLayerIn.channel typename "\"ned.IdealChannel\""
par ExtUeAppMecAppExample.iUpf.ppp[1].queue typename "\"inet.queueing.queue.DropTailQueue\""
par ExtUeAppMecAppExample.iUpf.ppp[1].queue displayStringTextFormat "\"contains %p pk (%l) pushed %u\\npulled %o removed %r dropped %d\""
par ExtUeAppMecAppExample.iUpf.ppp[1].queue packetCapacity 10000
par ExtUeAppMecAppExample.iUpf.ppp[1].queue dataCapacity -1b
attr unit b
par ExtUeAppMecAppExample.iUpf.ppp[1].queue dropperClass "\"inet::queueing::PacketAtCollectionEndDropper\""
par ExtUeAppMecAppExample.iUpf.ppp[1].queue comparatorClass "\"\""
par ExtUeAppMecAppExample.iUpf.ppp[1].queue bufferModule "\"\""
scalar ExtUeAppMecAppExample.iUpf.ppp[1].queue queueLength:last 0
attr autoWarmupFilter false
attr interpolationmode sample-hold
attr recordingmode last
attr source "warmup(atomic(constant0(packetPushEnded) + count(packetPushStarted) - count(packetPulled) - count(packetRemoved) - count(packetDropped)))"
attr title "queue length, last"
attr unit pk
scalar ExtUeAppMecAppExample.iUpf.ppp[1].queue queueLength:max 0
attr autoWarmupFilter false
attr interpolationmode sample-hold
attr recordingmode max
attr source "warmup(atomic(constant0(packetPushEnded) + count(packetPushStarted) - count(packetPulled) - count(packetRemoved) - count(packetDropped)))"
attr title "queue length, max"
attr unit pk
scalar ExtUeAppMecAppExample.iUpf.ppp[1].queue queueLength:timeavg 0
attr autoWarmupFilter false
attr interpolationmode sample-hold
attr recordingmode timeavg
attr source "warmup(atomic(constant0(packetPushEnded) + count(packetPushStarted) - count(packetPulled) - count(packetRemoved) - count(packetDropped)))"
attr title "queue length, timeavg"
attr unit pk
scalar ExtUeAppMecAppExample.iUpf.ppp[1].queue queueBitLength:last 0
attr autoWarmupFilter false
attr interpolationmode sample-hold
attr recordingmode last
attr source "warmup(atomic(constant0(packetPushEnded) + sum(packetLength(packetPushStarted)) - sum(packetLength(packetPulled)) - sum(packetLength(packetRemoved)) - sum(packetLength(packetDropped))))"
attr title "queue bit length, last"
attr unit b
scalar ExtUeAppMecAppExample.iUpf.ppp[1].queue queueBitLength:max 0
attr autoWarmupFilter false
attr interpolationmode sample-hold
attr recordingmode max
attr source "warmup(atomic(constant0(packetPushEnded) + sum(packetLength(packetPushStarted)) - sum(packetLength(packetPulled)) - sum(packetLength(packetRemoved)) - sum(packetLength(packetDropped))))"
attr title "queue bit length, max"
attr unit b
scalar ExtUeAppMecAppExample.iUpf.ppp[1].queue queueBitLength:timeavg 0
attr autoWarmupFilter false
attr interpolationmode sample-hold
attr recordingmode timeavg
attr source "warmup(atomic(constant0(packetPushEnded) + sum(packetLength(packetPushStarted)) - sum(packetLength(packetPulled)) - sum(packetLength(packetRemoved)) - sum(packetLength(packetDropped))))"
attr title "queue bit length, timeavg"
attr unit b
statistic ExtUeAppMecAppExample.iUpf.ppp[1].queue queueingTime:histogram
field count 8
field mean 0
field stddev 0
field min 0
field max 0
field sum 0
field sqrsum 0
attr interpolationmode none
attr recordingmode histogram
attr source queueingTime(packetPulled)
attr title "queueing times"
attr unit s
bin	-inf	0
bin	-0.5	0
bin	-0.48	0
bin	-0.46	0
bin	-0.44	0
bin	-0.42	0
bin	-0.4	0
bin	-0.38	0
bin	-0.36	0
bin	-0.34	0
bin	-0.32	0
bin	-0.3	0
bin	-0.28	0
bin	-0.26	0
bin	-0.24	0
bin	-0.22	0
bin	-0.2	0
bin	-0.18	0
bin	-0.16	0
bin	-0.14	0
bin	-0.12	0
bin	-0.1	0
bin	-0.08	0
bin	-0.06	0
bin	-0.04	0
bin	-0.02	0
bin	0	8
bin	0.02	0
bin	0.04	0
bin	0.06	0
bin	0.08	0
bin	0.1	0
bin	0.12	0
bin	0.14	0
bin	0.16	0
bin	0.18	0
bin	0.2	0
bin	0.22	0
bin	0.24	0
bin	0.26	0
bin	0.28	0
bin	0.3	0
bin	0.32	0
bin	0.34	0
bin	0.36	0
bin	0.38	0
bin	0.4	0
bin	0.42	0
bin	0.44	0
bin	0.46	0
bin	0.48	0
bin	0.5	0
scalar ExtUeAppMecAppExample.iUpf.ppp[1].queue outgoingPackets:count 8
attr recordingmode count
attr source packetPulled
attr title "outgoing packets, count"
attr unit pk
scalar ExtUeAppMecAppExample.iUpf.ppp[1].queue outgoingPacketLengths:sum 9632
attr interpolationmode none
attr recordingmode sum
attr source packetLength(packetPulled)
attr title "outgoing packet lengths, sum"
attr unit b
statistic ExtUeAppMecAppExample.iUpf.ppp[1].queue outgoingPacketLengths:histogram
field count 8
field mean 1204
field stddev 906.52996168277
field min 608
field max 3048
field sum 9632
field sqrsum 17349504
attr interpolationmode none
attr recordingmode histogram
attr source packetLength(packetPulled)
attr title "outgoing packet lengths"
attr unit b
bin	-inf	0
bin	0	0
bin	50	0
bin	100	0
bin	150	0
bin	200	0
bin	250	0
bin	300	0
bin	350	0
bin	400	0
bin	450	0
bin	500	0
bin	550	0
bin	600	5
bin	650	0
bin	700	0
bin	750	0
bin	800	0
bin	850	0
bin	900	0
bin	950	0
bin	1000	0
bin	1050	0
bin	1100	0
bin	1150	0
bin	1200	0
bin	1250	0
bin	1300	0
bin	1350	0
bin	1400	0
bin	1450	0
bin	1500	0
bin	1550	0
bin	1600	0
bin	1650	0
bin	1700	1
bin	1750	0
bin	1800	1
bin	1850	0
bin	1900	0
bin	1950	0
bin	2000	0
bin	2050	0
bin	2100	0
bin	2150	0
bin	2200	0
bin	2250	0
bin	2300	0
bin	2350	0
bin	2400	0
bin	2450	0
bin	2500	0
bin	2550	0
bin	2600	0
bin	2650	0
bin	2700	0
bin	2750	0
bin	2800	0
bin	2850	0
bin	2900	0
bin	2950	0
bin	3000	1
bin	3050	0
bin	3100	0
bin	3150	0
bin	3200	0
bin	3250	0
bin	3300	0
bin	3350	0
bin	3400	0
bin	3450	0
bin	3500	0
bin	3550	0
bin	3600	0
bin	3650	0
bin	3700	0
statistic ExtUeAppMecAppExample.iUpf.ppp[1].queue flowQueueingTime:histogram
field count 0
field mean -nan
field stddev nan
field min nan
field max nan
field sum 0
field sqrsum 0
attr interpolationmode none
attr recordingmode histogram
attr source queueingTime(demuxFlow(packetPulled))
attr title "flow queueing times"
attr unit s
bin	-inf	0
bin	0	0
bin	1	0
scalar ExtUeAppMecAppExample.iUpf.ppp[1].queue incomingPackets:count 8
attr recordingmode count
attr source packetPushStarted
attr title "incoming packets, count"
attr unit pk
[...]
par ExtUeAppMecAppExample.ue.eth[0] interfaceTableModule "\"ExtUeAppMecAppExample.ue.interfaceTable\""
par ExtUeAppMecAppExample.ue.eth[0] device "\"sim-veth2\""
par ExtUeAppMecAppExample.ue.eth[0] namespace "\"\""
par ExtUeAppMecAppExample.ue.eth[0] copyConfiguration "\"\""
attr enum ,copyToExt,copyFromExt
par ExtUeAppMecAppExample.ue.eth[0] address "\"0A-AA-00-00-00-04\""
attr mutable ""
par ExtUeAppMecAppExample.ue.eth[0] broadcast true
par ExtUeAppMecAppExample.ue.eth[0] multicast true
par ExtUeAppMecAppExample.ue.eth[0] pointToPoint false
par ExtUeAppMecAppExample.ue.eth[0] mtu 4470B
attr unit B
par ExtUeAppMecAppExample.ue.eth[0] protocol "\"ethernetmac\""
par ExtUeAppMecAppExample.ue.eth[0] bitrate "nan bps"
attr unit bps
scalar ExtUeAppMecAppExample.ue.eth[0] packetDropInterfaceDown:count 0
attr interpolationmode none
attr recordingmode count
attr source packetDropReasonIsInterfaceDown(packetDropped)
attr title "packet drops: interface down, count"
scalar ExtUeAppMecAppExample.ue.eth[0] packetDropInterfaceDown:sum(packetBytes) 0
attr interpolationmode none
attr recordingmode sum(packetBytes)
attr source packetDropReasonIsInterfaceDown(packetDropped)
attr title "packet drops: interface down, sum(packetBytes)"
scalar ExtUeAppMecAppExample.ue.eth[0] packetDropNoCarrier:count 0
attr interpolationmode none
attr recordingmode count
attr source packetDropReasonIsNoCarrier(packetDropped)
attr title "packet drops: no carrier, count"
scalar ExtUeAppMecAppExample.ue.eth[0] packetDropNoCarrier:sum(packetBytes) 0
attr interpolationmode none
attr recordingmode sum(packetBytes)
attr source packetDropReasonIsNoCarrier(packetDropped)
attr title "packet drops: no carrier, sum(packetBytes)"
par ExtUeAppMecAppExample.ue.encap typename "\"inet.linklayer.ethernet.basic.EthernetEncapsulation\""
par ExtUeAppMecAppExample.ue.encap registerProtocol true
par ExtUeAppMecAppExample.ue.encap interfaceTableModule "\"ExtUeAppMecAppExample.ue.interfaceTable\""
par ExtUeAppMecAppExample.ue.encap fcsMode "\"computed\""
attr enum declared,computed
par ExtUeAppMecAppExample.ue.encap stopOperationExtraTime -1s
attr unit s
par ExtUeAppMecAppExample.ue.encap stopOperationTimeout 2s
attr unit s
scalar ExtUeAppMecAppExample.ue.encap pauseSent:count 0
attr recordingmode count
attr title "pause sent, count"
scalar ExtUeAppMecAppExample.ue.encap pauseSent:sum 0
attr recordingmode sum
attr title "pause sent, sum"
scalar ExtUeAppMecAppExample.ue.encap decapPk:count 6
attr interpolationmode none
attr recordingmode count
attr source decapPk
attr title "packets decapsulated, count"
scalar ExtUeAppMecAppExample.ue.encap decapPk:sum(packetBytes) 280
attr interpolationmode none
attr recordingmode sum(packetBytes)
attr source decapPk
attr title "packets decapsulated, sum(packetBytes)"
scalar ExtUeAppMecAppExample.ue.encap encapPk:count 7
attr interpolationmode none
attr recordingmode count
attr source encapPk
attr title "packets encapsulated, count"
scalar ExtUeAppMecAppExample.ue.encap encapPk:sum(packetBytes) 275
attr interpolationmode none
attr recordingmode sum(packetBytes)
attr source encapPk
attr title "packets encapsulated, sum(packetBytes)"
par ExtUeAppMecAppExample.ue.ipv4.transportIn.channel typename "\"ned.IdealChannel\""
par ExtUeAppMecAppExample.ue.ipv4.up.out[0].channel typename "\"ned.IdealChannel\""
par ExtUeAppMecAppExample.ue.ipv4.lp.out[2].channel typename "\"ned.IdealChannel\""
par ExtUeAppMecAppExample.ue.ipv4.ifIn.channel typename "\"ned.IdealChannel\""
par ExtUeAppMecAppExample.ue.ipv4.configurator typename "\"inet.networklayer.configurator.ipv4.Ipv4NodeConfigurator\""
par ExtUeAppMecAppExample.ue.ipv4.configurator interfaceTableModule "\"ExtUeAppMecAppExample.ue.interfaceTable\""
par ExtUeAppMecAppExample.ue.ipv4.configurator routingTableModule "\"ExtUeAppMecAppExample.ue.ipv4.routingTable\""
par ExtUeAppMecAppExample.ue.ipv4.configurator networkConfiguratorModule "\"\""
par ExtUeAppMecAppExample.ue.ipv4.configurator configureRoutingTable true
par ExtUeAppMecAppExample.ue.ipv4.routingTable typename "\"inet.networklayer.ipv4.Ipv4RoutingTable\""
par ExtUeAppMecAppExample.ue.ipv4.routingTable interfaceTableModule "\"ExtUeAppMecAppExample.ue.interfaceTable\""
par ExtUeAppMecAppExample.ue.ipv4.routingTable routerId "\"auto\""
par ExtUeAppMecAppExample.ue.ipv4.routingTable netmaskRoutes "\"*\""
par ExtUeAppMecAppExample.ue.ipv4.routingTable forwarding true
par ExtUeAppMecAppExample.ue.ipv4.routingTable multicastForwarding false
par ExtUeAppMecAppExample.ue.ipv4.routingTable useAdminDist false
par ExtUeAppMecAppExample.ue.ipv4.routingTable routingFile "\"routing/ue.mrt\""
par ExtUeAppMecAppExample.ue.ipv4.natTable typename "\"inet.networklayer.ipv4.Ipv4NatTable\""
par ExtUeAppMecAppExample.ue.ipv4.natTable networkProtocolModule "\"^.ip\""
par ExtUeAppMecAppExample.ue.ipv4.natTable config "<config/> at content:1"
par ExtUeAppMecAppExample.ue.ipv4.up typename "\"inet.common.MessageDispatcher\""
par ExtUeAppMecAppExample.ue.ipv4.up displayStringTextFormat "\"processed %p pk (%l)\""
par ExtUeAppMecAppExample.ue.ipv4.up forwardServiceRegistration true
par ExtUeAppMecAppExample.ue.ipv4.up forwardProtocolRegistration true
par ExtUeAppMecAppExample.ue.ipv4.igmp typename "\"inet.networklayer.ipv4.Igmpv2\""
par ExtUeAppMecAppExample.ue.ipv4.igmp interfaceTableModule "\"ExtUeAppMecAppExample.ue.interfaceTable\""
par ExtUeAppMecAppExample.ue.ipv4.igmp routingTableModule "\"ExtUeAppMecAppExample.ue.ipv4.routingTable\""
par ExtUeAppMecAppExample.ue.ipv4.igmp crcMode "\"computed\""
attr enum declared,computed
par ExtUeAppMecAppExample.ue.ipv4.igmp enabled true
par ExtUeAppMecAppExample.ue.ipv4.igmp robustnessVariable 2
par ExtUeAppMecAppExample.ue.ipv4.igmp queryInterval 125s
attr unit s
par ExtUeAppMecAppExample.ue.ipv4.igmp queryResponseInterval 10s
attr unit s
par ExtUeAppMecAppExample.ue.ipv4.igmp groupMembershipInterval 260s
attr unit s
par ExtUeAppMecAppExample.ue.ipv4.igmp otherQuerierPresentInterval 255s
attr unit s
par ExtUeAppMecAppExample.ue.ipv4.igmp startupQueryInterval 31.25s
attr unit s
par ExtUeAppMecAppExample.ue.ipv4.igmp startupQueryCount 2
par ExtUeAppMecAppExample.ue.ipv4.igmp lastMemberQueryInterval 1s
attr unit s
par ExtUeAppMecAppExample.ue.ipv4.igmp lastMemberQueryCount 2
par ExtUeAppMecAppExample.ue.ipv4.igmp unsolicitedReportInterval 10s
attr unit s
par ExtUeAppMecAppExample.ue.ipv4.icmp typename "\"inet.networklayer.ipv4.Icmp\""
par ExtUeAppMecAppExample.ue.ipv4.icmp interfaceTableModule "\"ExtUeAppMecAppExample.ue.interfaceTable\""
par ExtUeAppMecAppExample.ue.ipv4.icmp routingTableModule "\"ExtUeAppMecAppExample.ue.ipv4.routingTable\""
par ExtUeAppMecAppExample.ue.ipv4.icmp crcMode "\"computed\""
attr enum declared,computed
attr mutable ""
par ExtUeAppMecAppExample.ue.ipv4.icmp quoteLength 8B
attr mutable ""
attr unit B
par ExtUeAppMecAppExample.ue.ipv4.mp typename "\"inet.common.MessageDispatcher\""
par ExtUeAppMecAppExample.ue.ipv4.mp displayStringTextFormat "\"processed %p pk (%l)\""
par ExtUeAppMecAppExample.ue.ipv4.mp forwardServiceRegistration true
par ExtUeAppMecAppExample.ue.ipv4.mp forwardProtocolRegistration true
par ExtUeAppMecAppExample.ue.ipv4.ip typename "\"inet.networklayer.ipv4.Ipv4\""
par ExtUeAppMecAppExample.ue.ipv4.ip interfaceTableModule "\"ExtUeAppMecAppExample.ue.interfaceTable\""
par ExtUeAppMecAppExample.ue.ipv4.ip routingTableModule "\"ExtUeAppMecAppExample.ue.ipv4.routingTable\""
par ExtUeAppMecAppExample.ue.ipv4.ip arpModule "\"ExtUeAppMecAppExample.ue.ipv4.arp\""
par ExtUeAppMecAppExample.ue.ipv4.ip icmpModule "\"ExtUeAppMecAppExample.ue.ipv4.icmp\""
par ExtUeAppMecAppExample.ue.ipv4.ip crcMode "\"computed\""
attr enum declared,computed
par ExtUeAppMecAppExample.ue.ipv4.ip timeToLive 32
par ExtUeAppMecAppExample.ue.ipv4.ip multicastTimeToLive 32
par ExtUeAppMecAppExample.ue.ipv4.ip fragmentTimeout 60s
attr unit s
par ExtUeAppMecAppExample.ue.ipv4.ip limitedBroadcast false
par ExtUeAppMecAppExample.ue.ipv4.ip directBroadcastInterfaces "\"\""
scalar ExtUeAppMecAppExample.ue.ipv4.ip packetDropAddressResolutionFailed:count 0
attr interpolationmode none
attr recordingmode count
attr source packetDropReasonIsAddressResolutionFailed(packetDropped)
attr title "packet drop: address resolution failed, count"
scalar ExtUeAppMecAppExample.ue.ipv4.ip packetDropAddressResolutionFailed:sum(packetBytes) 0
attr interpolationmode none
attr recordingmode sum(packetBytes)
attr source packetDropReasonIsAddressResolutionFailed(packetDropped)
attr title "packet drop: address resolution failed, sum(packetBytes)"
scalar ExtUeAppMecAppExample.ue.ipv4.ip packetDropHopLimitReached:count 0
attr interpolationmode none
attr recordingmode count
attr source packetDropReasonIsHopLimitReached(packetDropped)
attr title "packet drop: hop limit reached, count"
scalar ExtUeAppMecAppExample.ue.ipv4.ip packetDropHopLimitReached:sum(packetBytes) 0
attr interpolationmode none
attr recordingmode sum(packetBytes)
attr source packetDropReasonIsHopLimitReached(packetDropped)
attr title "packet drop: hop limit reached, sum(packetBytes)"
scalar ExtUeAppMecAppExample.ue.ipv4.ip packetDropForwardingDisabled:count 0
attr interpolationmode none
attr recordingmode count
attr source packetDropReasonIsForwardingDisabled(packetDropped)
attr title "packet drop: forwarding disabled, count"
scalar ExtUeAppMecAppExample.ue.ipv4.ip packetDropForwardingDisabled:sum(packetBytes) 0
attr interpolationmode none
attr recordingmode sum(packetBytes)
attr source packetDropReasonIsForwardingDisabled(packetDropped)
attr title "packet drop: forwarding disabled, sum(packetBytes)"
scalar ExtUeAppMecAppExample.ue.ipv4.ip packetDropNoInterfaceFound:count 0
attr interpolationmode none
attr recordingmode count
attr source packetDropReasonIsNoInterfaceFound(packetDropped)
attr title "packet drop: no interface found, count"
scalar ExtUeAppMecAppExample.ue.ipv4.ip packetDropNoInterfaceFound:sum(packetBytes) 0
attr interpolationmode none
attr recordingmode sum(packetBytes)
attr source packetDropReasonIsNoInterfaceFound(packetDropped)
attr title "packet drop: no interface found, sum(packetBytes)"
scalar ExtUeAppMecAppExample.ue.ipv4.ip packetDropNoRouteFound:count 0
attr interpolationmode none
attr recordingmode count
attr source packetDropReasonIsNoRouteFound(packetDropped)
attr title "packet drop: no route found, count"
scalar ExtUeAppMecAppExample.ue.ipv4.ip packetDropNoRouteFound:sum(packetBytes) 0
attr interpolationmode none
attr recordingmode sum(packetBytes)
attr source packetDropReasonIsNoRouteFound(packetDropped)
attr title "packet drop: no route found, sum(packetBytes)"
scalar ExtUeAppMecAppExample.ue.ipv4.ip packetDropUndefined:count 0
attr interpolationmode none
attr recordingmode count
attr source packetDropReasonIsUndefined(packetDropped)
attr title "packet drop: undefined, count"
scalar ExtUeAppMecAppExample.ue.ipv4.ip packetDropUndefined:sum(packetBytes) 0
attr interpolationmode none
attr recordingmode sum(packetBytes)
attr source packetDropReasonIsUndefined(packetDropped)
attr title "packet drop: undefined, sum(packetBytes)"
par ExtUeAppMecAppExample.ue.ipv4.arp typename "\"inet.networklayer.arp.ipv4.Arp\""
par ExtUeAppMecAppExample.ue.ipv4.arp interfaceTableModule "\"ExtUeAppMecAppExample.ue.interfaceTable\""
par ExtUeAppMecAppExample.ue.ipv4.arp routingTableModule "\"ExtUeAppMecAppExample.ue.ipv4.routingTable\""
par ExtUeAppMecAppExample.ue.ipv4.arp retryTimeout 1s
attr unit s
par ExtUeAppMecAppExample.ue.ipv4.arp retryCount 3
par ExtUeAppMecAppExample.ue.ipv4.arp cacheTimeout 120s
attr unit s
par ExtUeAppMecAppExample.ue.ipv4.arp proxyArpInterfaces "\"*\""
scalar ExtUeAppMecAppExample.ue.ipv4.arp arpResolutionFailed:count 0
attr recordingmode count
attr title "ARP failed resolutions, count"
scalar ExtUeAppMecAppExample.ue.ipv4.arp arpResolutionCompleted:count 3
attr recordingmode count
attr title "ARP completed resolutions, count"
scalar ExtUeAppMecAppExample.ue.ipv4.arp arpResolutionInitiated:count 1
attr recordingmode count
attr title "ARP initiated resolutions, count"
scalar ExtUeAppMecAppExample.ue.ipv4.arp arpReplySent:count 2
attr recordingmode count
attr source arpReplySent
attr title "ARP replies sent, count"
scalar ExtUeAppMecAppExample.ue.ipv4.arp arpReplySent:sum(packetBytes) 56
attr recordingmode sum(packetBytes)
attr source arpReplySent
attr title "ARP replies sent, sum(packetBytes)"
scalar ExtUeAppMecAppExample.ue.ipv4.arp arpRequestSent:count 1
attr recordingmode count
attr source arpRequestSent
attr title "ARP request sent, count"
scalar ExtUeAppMecAppExample.ue.ipv4.arp arpRequestSent:sum(packetBytes) 28
attr recordingmode sum(packetBytes)
attr source arpRequestSent
attr title "ARP request sent, sum(packetBytes)"
par ExtUeAppMecAppExample.ue.ipv4.lp typename "\"inet.common.MessageDispatcher\""
par ExtUeAppMecAppExample.ue.ipv4.lp displayStringTextFormat "\"processed %p pk (%l)\""
par ExtUeAppMecAppExample.ue.ipv4.lp forwardServiceRegistration true
par ExtUeAppMecAppExample.ue.ipv4.lp forwardProtocolRegistration true
par ExtUeAppMecAppExample.ue.ipv4 typename "\"inet.networklayer.ipv4.Ipv4NetworkLayer\""
par ExtUeAppMecAppExample.ue.ipv4 forwarding true
par ExtUeAppMecAppExample.ue.ipv4 multicastForwarding false
par ExtUeAppMecAppExample.ue.ipv4 interfaceTableModule "\"ExtUeAppMecAppExample.ue.interfaceTable\""
par ExtUeAppMecAppExample.ue.ipv4 displayStringTextFormat "\"%i\""
par ExtUeAppMecAppExample.ue.udp.crcInsertion typename "\"inet.transportlayer.udp.UdpCrcInsertionHook\""
par ExtUeAppMecAppExample.ue.udp typename "\"inet.transportlayer.udp.Udp\""
par ExtUeAppMecAppExample.ue.udp interfaceTableModule "\"ExtUeAppMecAppExample.ue.interfaceTable\""
par ExtUeAppMecAppExample.ue.udp icmpModule "\"^.ipv4.icmp\""
par ExtUeAppMecAppExample.ue.udp icmpv6Module "\"^.ipv6.icmpv6\""
par ExtUeAppMecAppExample.ue.udp crcMode "\"computed\""
attr enum disabled,declared,computed
par ExtUeAppMecAppExample.ue.udp defaultMulticastLoop true
scalar ExtUeAppMecAppExample.ue.udp packetReceived:count 2
attr interpolationmode none
attr recordingmode count
attr source packetReceived
attr title "packets received, count"
scalar ExtUeAppMecAppExample.ue.udp packetReceived:sum(packetBytes) 56
attr interpolationmode none
attr recordingmode sum(packetBytes)
attr source packetReceived
attr title "packets received, sum(packetBytes)"
scalar ExtUeAppMecAppExample.ue.udp packetSent:count 2
attr interpolationmode none
attr recordingmode count
attr source packetSent
attr title "packets sent, count"
scalar ExtUeAppMecAppExample.ue.udp packetSent:sum(packetBytes) 45
attr interpolationmode none
attr recordingmode sum(packetBytes)
attr source packetSent
attr title "packets sent, sum(packetBytes)"
scalar ExtUeAppMecAppExample.ue.udp passedUpPk:count 2
attr interpolationmode none
attr recordingmode count
attr source packetSentToUpper
attr title "packets passed up, count"
scalar ExtUeAppMecAppExample.ue.udp droppedPkWrongPort:count 0
attr interpolationmode none
attr recordingmode count
attr source packetDropReasonIsNoPortFound(packetDropped)
attr title "packets dropped (wrong port), count"
scalar ExtUeAppMecAppExample.ue.udp droppedPkBadChecksum:count 0
attr interpolationmode none
attr recordingmode count
attr source packetDropReasonIsIncorrectlyReceived(packetDropped)
attr title "packets dropped (checksum error), count"
par ExtUeAppMecAppExample.ue.tcp.crcInsertion typename "\"inet.transportlayer.tcp_common.TcpCrcInsertionHook\""
par ExtUeAppMecAppExample.ue.tcp.conn-25 typename "\"inet.transportlayer.tcp.TcpConnection\""
par ExtUeAppMecAppExample.ue.tcp typename "\"inet.transportlayer.tcp.Tcp\""
par ExtUeAppMecAppExample.ue.tcp crcMode "\"computed\""
attr enum declared,computed
par ExtUeAppMecAppExample.ue.tcp advertisedWindow 7504
par ExtUeAppMecAppExample.ue.tcp delayedAcksEnabled false
par ExtUeAppMecAppExample.ue.tcp nagleEnabled true
par ExtUeAppMecAppExample.ue.tcp limitedTransmitEnabled false
par ExtUeAppMecAppExample.ue.tcp increasedIWEnabled false
par ExtUeAppMecAppExample.ue.tcp sackSupport false
par ExtUeAppMecAppExample.ue.tcp windowScalingSupport false
par ExtUeAppMecAppExample.ue.tcp windowScalingFactor -1
par ExtUeAppMecAppExample.ue.tcp timestampSupport false
par ExtUeAppMecAppExample.ue.tcp mss 536
par ExtUeAppMecAppExample.ue.tcp msl 120s
attr unit s
par ExtUeAppMecAppExample.ue.tcp tcpAlgorithmClass "\"TcpReno\""
attr enum TcpVegas,TcpWestwood,TcpNewReno,TcpReno,TcpTahoe,TcpNoCongestionControl
par ExtUeAppMecAppExample.ue.tcp useDataNotification false
par ExtUeAppMecAppExample.ue.tcp dupthresh 3
par ExtUeAppMecAppExample.ue.tcp initialSsthresh 4294967295
par ExtUeAppMecAppExample.ue.tcp stopOperationExtraTime 0s
attr unit s
par ExtUeAppMecAppExample.ue.tcp stopOperationTimeout 2s
attr unit s
par ExtUeAppMecAppExample.ue.tcp ecnWillingness false
par ExtUeAppMecAppExample.ue.tcp dctcpGamma 0.0625
par ExtUeAppMecAppExample.ue.app[0] typename "\"simu5g.apps.mec.DeviceApp.DeviceApp\""
par ExtUeAppMecAppExample.ue.app[0] UALCMPAddress "\"ualcmp\""
par ExtUeAppMecAppExample.ue.app[0] UALCMPPort 1000
par ExtUeAppMecAppExample.ue.app[0] appProvider "\"\""
par ExtUeAppMecAppExample.ue.app[0] appPackageSource "\"\""
par ExtUeAppMecAppExample.ue.app[0] localAddress "\"\""
par ExtUeAppMecAppExample.ue.app[0] localPort 4500
par ExtUeAppMecAppExample.ue.app[0] connectAddress "\"\""
par ExtUeAppMecAppExample.ue.app[0] connectPort 1000
par ExtUeAppMecAppExample.ue.app[0] startTime 1s
attr unit s
par ExtUeAppMecAppExample.ue.app[0] stopTime -1s
attr unit s
par ExtUeAppMecAppExample.ue.app[0] timeToLive -1
par ExtUeAppMecAppExample.ue.app[0] dscp -1
par ExtUeAppMecAppExample.ue.app[0] tos -1
par ExtUeAppMecAppExample.ue.app[0] stopOperationExtraTime -1s
attr unit s
par ExtUeAppMecAppExample.ue.app[0] stopOperationTimeout 2s
attr unit s
par ExtUeAppMecAppExample.ue.at typename "\"inet.common.MessageDispatcher\""
par ExtUeAppMecAppExample.ue.at displayStringTextFormat "\"processed %p pk (%l)\""
par ExtUeAppMecAppExample.ue.at forwardServiceRegistration true
par ExtUeAppMecAppExample.ue.at forwardProtocolRegistration true
par ExtUeAppMecAppExample.ue.tn typename "\"inet.common.MessageDispatcher\""
par ExtUeAppMecAppExample.ue.tn displayStringTextFormat "\"processed %p pk (%l)\""
par ExtUeAppMecAppExample.ue.tn forwardServiceRegistration true
par ExtUeAppMecAppExample.ue.tn forwardProtocolRegistration true
par ExtUeAppMecAppExample.ue.nl typename "\"inet.common.MessageDispatcher\""
par ExtUeAppMecAppExample.ue.nl displayStringTextFormat "\"processed %p pk (%l)\""
par ExtUeAppMecAppExample.ue.nl forwardServiceRegistration true
par ExtUeAppMecAppExample.ue.nl forwardProtocolRegistration true
par ExtUeAppMecAppExample.ue typename "\"simu5g.nodes.NR.NRUe\""
par ExtUeAppMecAppExample.ue numApps 1
par ExtUeAppMecAppExample.ue hasUdp true
par ExtUeAppMecAppExample.ue hasTcp true
par ExtUeAppMecAppExample.ue hasSctp false
par ExtUeAppMecAppExample.ue nodeType "\"UE\""
par ExtUeAppMecAppExample.ue masterId 0
attr mutable ""
par ExtUeAppMecAppExample.ue macNodeId 1025
attr mutable ""
par ExtUeAppMecAppExample.ue macCellId 0
attr mutable ""
par ExtUeAppMecAppExample.ue nicType "\"NRNicUe\""
par ExtUeAppMecAppExample.ue hasIpv4 true
par ExtUeAppMecAppExample.ue hasIpv6 false
par ExtUeAppMecAppExample.ue numEthInterfaces 1
par ExtUeAppMecAppExample.ue extHostAddress "\"192.168.3.2\""
par ExtUeAppMecAppExample.ue numLoInterfaces 1
par ExtUeAppMecAppExample.ue numPcapRecorders 0
par ExtUeAppMecAppExample.ue hasRNISupport false
par ExtUeAppMecAppExample.ue nrMasterId 1
attr mutable ""
par ExtUeAppMecAppExample.ue nrMacNodeId 2049
attr mutable ""
par ExtUeAppMecAppExample.ue nrMacCellId 1
attr mutable ""
par ExtUeAppMecAppExample typename "\"simu5g.emulation.mec.extUeAppMecApp.ExtUeAppMecAppExample\""
par ExtUeAppMecAppExample playgroundSizeX 1100m
attr unit m
par ExtUeAppMecAppExample playgroundSizeY 800m
attr unit m
par ExtUeAppMecAppExample playgroundSizeZ 50m
attr unit m

