version 3
run ExtUeAppMecApp-0-20220722-09:23:15-3303
attr configname ExtUeAppMecApp
attr datetime 20220722-09:23:15
attr datetimef 20220722-092315
attr experiment ExtUeAppMecApp
attr inifile omnetpp.ini
attr iterationvars ""
attr iterationvarsd ""
attr iterationvarsf ""
attr measurement ""
attr network simu5g.emulation.mec.extUeAppMecApp.ExtUeAppMecAppExample
attr processid 3303
attr repetition 0
attr replication #0
attr resultdir results
attr runnumber 0
attr seedset 0
config *.upf.ipv4.routingTable.routingFile "\"routing/upf.mrt\""
config *.iUpf.ipv4.routingTable.routingFile "\"routing/iUpf.mrt\""
config *.gNodeB1.ipv4.routingTable.routingFile "\"routing/gnb.mrt\""
config *.ue.ipv4.routingTable.routingFile "\"routing/ue.mrt\""
config *.ualcmp.ipv4.routingTable.routingFile "\"routing/ualcmp.mrt\""
config *.mecHost1.upf_mec.ipv4.routingTable.routingFile "\"routing/mecHost1_upf.mrt\""
config *.mecHost1.virtualisationInfrastructure.ipv4.routingTable.routingFile "\"routing/mecHost1_vi.mrt\""
config *.mecHost1.virtualisationInfrastructure.numExtEthInterfaces 1
config *.mecHost1.virtualisationInfrastructure.extEth[0].typename ExtLowerEthernetInterface
config *.mecHost1.virtualisationInfrastructure.extEth[0].device "\"sim-veth1\""
config *.mecHost1.virtualisationInfrastructure.ipv4.forwarding true
config **.extMeAppsAddress "\"192.168.2.0/24\""
config *.ue.numEthInterfaces 1
config *.ue.eth[0].typename ExtLowerEthernetInterface
config *.ue.eth[0].device "\"sim-veth2\""
config *.ue.extHostAddress "\"192.168.3.2\""
config *.ue.ipv4.forwarding true
config *.ue.numPcapRecorders 0
config *.ue.pcapRecorder[*].pcapFile "\"ue.pcap\""
config *.ue.pcapRecorder[0].moduleNamePatterns "\"eth[0]\""
config *.ue.pcapRecorder[*].pcapLinkType 1
config *.ue.numApps 1
config *.ue.app[0].typename DeviceApp
config *.ue.app[0].localPort 4500
config *.ue.app[0].UALCMPAddress "\"ualcmp\""
config *.ue.app[0].UALCMPPort 1000
config **.mecOrchestrator.mecHostList "\"mecHost1\""
config **.mecOrchestrator.mecApplicationPackageList "\"WarningAlertApp_External\""
config **.mecHost1.mecPlatformManager.mecOrchestrator "\"mecOrchestrator\""
config **.mecHost1.bsList "\"gNodeB1\""
config *.mecHost1.maxMECApps 100
config *.mecHost1.maxRam 32GB
config *.mecHost1.maxDisk 100TB
config *.mecHost1.maxCpuSpeed 400000
config *.mecHost1.mecPlatform.numMecServices 1
config *.mecHost1.mecPlatform.mecService[0].typename LocationService
config *.mecHost1.mecPlatform.mecService[0].localAddress "\"mecHost1.virtualisationInfrastructure\""
config *.mecHost1.mecPlatform.mecService[0].localPort 10020
config *.mecHost1.mecPlatform.mecService[0].rng-0 0
config *.mecHost1.mecPlatform.mecService[0].rng-1 1
config *.mecHost1.mecPlatform.mecService[0].requestServiceTime 20us
config *.mecHost1.mecPlatform.mecService[0].subscriptionServiceTime 11us
config *.mecHost1.mecPlatform.serviceRegistry.localAddress "\"mecHost1.virtualisationInfrastructure\""
config *.mecHost1.mecPlatform.serviceRegistry.localPort 10021
config *.mecHost1.mecPlatform.serviceRegistry.rng-0 0
config *.mecHost1.mecPlatform.serviceRegistry.rng-1 1
config scheduler-class inet::RealTimeScheduler
config cmdenv-express-mode true
config image-path ../../../images
config output-scalar-file-append false
config sim-time-limit 40s
config num-rngs 3
config network simu5g.emulation.mec.extUeAppMecApp.ExtUeAppMecAppExample
config **.routingRecorder.enabled false
config **.networkConfiguratorModule "\"\""
config **.fcsMode "\"computed\""
config **.crcMode "\"computed\""
config output-scalar-file results/ExtUeAppMecApp/0.sca
config output-vector-file results/ExtUeAppMecApp/0.vec
config seed-set 0
config *.playgroundSizeX 1100m
config *.playgroundSizeY 800m
config *.playgroundSizeZ 50m
config **.mobility.constraintAreaMaxX 1000m
config **.mobility.constraintAreaMaxY 1000m
config **.mobility.constraintAreaMinX 0m
config **.mobility.constraintAreaMinY 0m
config **.mobility.constraintAreaMinZ 0m
config **.mobility.constraintAreaMaxZ 0m
config **.mobility.initFromDisplayString false
config **.amcType "\"NRAmc\""
config **.pilotMode "\"ROBUST_CQI\""
config **.targetBler 0.01
config **.blerShift 5
config **.fbPeriod 40
config *.configurator.config "xmldoc(\"./demo.xml\")"
config *.gNodeB1.mobility.initialX 137m
config *.gNodeB1.mobility.initialY 260m
config *.ue*.macCellId 0
config *.ue*.masterId 0
config *.ue*.nrMacCellId 1
config *.ue*.nrMasterId 1
config *.ue.mobility.initFromDisplayString false
config *.ue.mobility.typename LinearMobility
config *.ue.mobility.updateInterval 0.05s
config **.numues 1
config **.ue.mobility.initialX 180m
config **.ue.mobility.initialY 50m
config **.ue.mobility.initialMovementHeading 90deg
config **.ue.mobility.speed 10mps
config *.uerierAggregation.numComponentueriers 1
config *.uerierAggregation.componentuerier[0].numerologyIndex 0
config *.uerierAggregation.componentuerier[0].carrierFrequency 2GHz
config *.uerierAggregation.componentuerier[0].numBands 10
config *.gNodeB1.cellularNic.numCarriers 1
config *.gNodeB1.cellularNic.channelModel[0].componentCarrierIndex 0
config *.ue.cellularNic.numNRCarriers 1
config *.ue.cellularNic.nrChannelModel[0].componentCarrierIndex 0

vector 0 ExtUeAppMecAppExample.upf.ppp[0].ppp transmissionState:vector ETV
attr interpolationmode sample-hold
attr recordingmode vector
attr source transmissionStateChanged
attr title "tx state"
vector 1 ExtUeAppMecAppExample.upf.pppIf.ppp transmissionState:vector ETV
attr interpolationmode sample-hold
attr recordingmode vector
attr source transmissionStateChanged
attr title "tx state"
vector 2 ExtUeAppMecAppExample.upf.udp passedUpPk:vector(count) ETV
attr interpolationmode none
attr recordingmode vector(count)
attr source packetSentToUpper
attr title "packets passed up, count"
vector 3 ExtUeAppMecAppExample.upf.udp droppedPkWrongPort:vector(count) ETV
attr interpolationmode none
attr recordingmode vector(count)
attr source packetDropReasonIsNoPortFound(packetDropped)
attr title "packets dropped (wrong port), count"
vector 4 ExtUeAppMecAppExample.upf.udp droppedPkBadChecksum:vector(count) ETV
attr interpolationmode none
attr recordingmode vector(count)
attr source packetDropReasonIsIncorrectlyReceived(packetDropped)
attr title "packets dropped (checksum error), count"
vector 5 ExtUeAppMecAppExample.iUpf.ppp[0].ppp transmissionState:vector ETV
attr interpolationmode sample-hold
attr recordingmode vector
attr source transmissionStateChanged
attr title "tx state"
vector 6 ExtUeAppMecAppExample.iUpf.ppp[1].ppp transmissionState:vector ETV
attr interpolationmode sample-hold
attr recordingmode vector
attr source transmissionStateChanged
attr title "tx state"
vector 7 ExtUeAppMecAppExample.iUpf.ppp[2].ppp transmissionState:vector ETV
attr interpolationmode sample-hold
attr recordingmode vector
attr source transmissionStateChanged
attr title "tx state"
vector 8 ExtUeAppMecAppExample.iUpf.pppIf.ppp transmissionState:vector ETV
attr interpolationmode sample-hold
attr recordingmode vector
attr source transmissionStateChanged
attr title "tx state"
vector 9 ExtUeAppMecAppExample.iUpf.udp passedUpPk:vector(count) ETV
attr interpolationmode none
attr recordingmode vector(count)
attr source packetSentToUpper
attr title "packets passed up, count"
vector 10 ExtUeAppMecAppExample.iUpf.udp droppedPkWrongPort:vector(count) ETV
attr interpolationmode none
attr recordingmode vector(count)
attr source packetDropReasonIsNoPortFound(packetDropped)
attr title "packets dropped (wrong port), count"
vector 11 ExtUeAppMecAppExample.iUpf.udp droppedPkBadChecksum:vector(count) ETV
attr interpolationmode none
attr recordingmode vector(count)
attr source packetDropReasonIsIncorrectlyReceived(packetDropped)
attr title "packets dropped (checksum error), count"
vector 12 ExtUeAppMecAppExample.gNodeB1.pppIf.ppp transmissionState:vector ETV
attr interpolationmode sample-hold
attr recordingmode vector
attr source transmissionStateChanged
attr title "tx state"
vector 13 ExtUeAppMecAppExample.gNodeB1.pppMEHostIf.ppp transmissionState:vector ETV
attr interpolationmode sample-hold
attr recordingmode vector
attr source transmissionStateChanged
attr title "tx state"
vector 14 ExtUeAppMecAppExample.gNodeB1.udp passedUpPk:vector(count) ETV
attr interpolationmode none
attr recordingmode vector(count)
attr source packetSentToUpper
attr title "packets passed up, count"
vector 15 ExtUeAppMecAppExample.gNodeB1.udp droppedPkWrongPort:vector(count) ETV
attr interpolationmode none
attr recordingmode vector(count)
attr source packetDropReasonIsNoPortFound(packetDropped)
attr title "packets dropped (wrong port), count"
vector 16 ExtUeAppMecAppExample.gNodeB1.udp droppedPkBadChecksum:vector(count) ETV
attr interpolationmode none
attr recordingmode vector(count)
attr source packetDropReasonIsIncorrectlyReceived(packetDropped)
attr title "packets dropped (checksum error), count"
vector 17 ExtUeAppMecAppExample.mecHost1.virtualisationInfrastructure.pppIf[0].ppp transmissionState:vector ETV
attr interpolationmode sample-hold
attr recordingmode vector
attr source transmissionStateChanged
attr title "tx state"
vector 18 ExtUeAppMecAppExample.mecHost1.virtualisationInfrastructure.udp passedUpPk:vector(count) ETV
attr interpolationmode none
attr recordingmode vector(count)
attr source packetSentToUpper
attr title "packets passed up, count"
vector 19 ExtUeAppMecAppExample.mecHost1.virtualisationInfrastructure.udp droppedPkWrongPort:vector(count) ETV
attr interpolationmode none
attr recordingmode vector(count)
attr source packetDropReasonIsNoPortFound(packetDropped)
attr title "packets dropped (wrong port), count"
vector 20 ExtUeAppMecAppExample.mecHost1.virtualisationInfrastructure.udp droppedPkBadChecksum:vector(count) ETV
attr interpolationmode none
attr recordingmode vector(count)
attr source packetDropReasonIsIncorrectlyReceived(packetDropped)
attr title "packets dropped (checksum error), count"
vector 21 ExtUeAppMecAppExample.mecHost1.upf_mec.ppp[0].ppp transmissionState:vector ETV
attr interpolationmode sample-hold
attr recordingmode vector
attr source transmissionStateChanged
attr title "tx state"
vector 22 ExtUeAppMecAppExample.mecHost1.upf_mec.pppIf.ppp transmissionState:vector ETV
attr interpolationmode sample-hold
attr recordingmode vector
attr source transmissionStateChanged
attr title "tx state"
vector 23 ExtUeAppMecAppExample.mecHost1.upf_mec.udp passedUpPk:vector(count) ETV
attr interpolationmode none
attr recordingmode vector(count)
attr source packetSentToUpper
attr title "packets passed up, count"
vector 24 ExtUeAppMecAppExample.mecHost1.upf_mec.udp droppedPkWrongPort:vector(count) ETV
attr interpolationmode none
attr recordingmode vector(count)
attr source packetDropReasonIsNoPortFound(packetDropped)
attr title "packets dropped (wrong port), count"
vector 25 ExtUeAppMecAppExample.mecHost1.upf_mec.udp droppedPkBadChecksum:vector(count) ETV
attr interpolationmode none
attr recordingmode vector(count)
attr source packetDropReasonIsIncorrectlyReceived(packetDropped)
attr title "packets dropped (checksum error), count"
vector 26 ExtUeAppMecAppExample.ualcmp.pppIf.ppp transmissionState:vector ETV
attr interpolationmode sample-hold
attr recordingmode vector
attr source transmissionStateChanged
attr title "tx state"
vector 27 ExtUeAppMecAppExample.ualcmp.udp passedUpPk:vector(count) ETV
attr interpolationmode none
attr recordingmode vector(count)
attr source packetSentToUpper
attr title "packets passed up, count"
vector 28 ExtUeAppMecAppExample.ualcmp.udp droppedPkWrongPort:vector(count) ETV
attr interpolationmode none
attr recordingmode vector(count)
attr source packetDropReasonIsNoPortFound(packetDropped)
attr title "packets dropped (wrong port), count"
vector 29 ExtUeAppMecAppExample.ualcmp.udp droppedPkBadChecksum:vector(count) ETV
attr interpolationmode none
attr recordingmode vector(count)
attr source packetDropReasonIsIncorrectlyReceived(packetDropped)
attr title "packets dropped (checksum error), count"
vector 30 ExtUeAppMecAppExample.ue.udp passedUpPk:vector(count) ETV
attr interpolationmode none
attr recordingmode vector(count)
attr source packetSentToUpper
attr title "packets passed up, count"
vector 31 ExtUeAppMecAppExample.ue.udp droppedPkWrongPort:vector(count) ETV
attr interpolationmode none
attr recordingmode vector(count)
attr source packetDropReasonIsNoPortFound(packetDropped)
attr title "packets dropped (wrong port), count"
vector 32 ExtUeAppMecAppExample.ue.udp droppedPkBadChecksum:vector(count) ETV
attr interpolationmode none
attr recordingmode vector(count)
attr source packetDropReasonIsIncorrectlyReceived(packetDropped)
attr title "packets dropped (checksum error), count"
vector 33 ExtUeAppMecAppExample.ue.cellularNic.phy servingCell:vector ETV
attr recordingmode vector
attr source servingCell
attr title "ID of the serving eNodeB for the UE"
attr unit ""
vector 34 ExtUeAppMecAppExample.ue.cellularNic.nrPhy servingCell:vector ETV
attr recordingmode vector
attr source servingCell
attr title "ID of the serving eNodeB for the UE"
attr unit ""
vector 35 ExtUeAppMecAppExample.ue.tcp.conn-25 tcpRcvQueueBytes:vector ETV
attr interpolationmode sample-hold
attr recordingmode vector
vector 36 ExtUeAppMecAppExample.ue.tcp.conn-25 rcvAdv:vector ETV
attr interpolationmode sample-hold
attr recordingmode vector
vector 37 ExtUeAppMecAppExample.ue.tcp.conn-25 rcvWnd:vector ETV
attr interpolationmode sample-hold
attr recordingmode vector
vector 38 ExtUeAppMecAppExample.ue.tcp.conn-25 sndAck:vector ETV
attr interpolationmode sample-hold
attr recordingmode vector
vector 39 ExtUeAppMecAppExample.ue.cellularNic.pdcpRrc receivedPacketFromUpperLayer:vector(packetBytes) ETV
attr interpolationmode none
attr recordingmode vector(packetBytes)
attr source receivedPacketFromUpperLayer
vector 40 ExtUeAppMecAppExample.ue.cellularNic.pdcpRrc sentPacketToLowerLayer:vector(packetBytes) ETV
attr interpolationmode none
attr recordingmode vector(packetBytes)
attr source sentPacketToLowerLayer
vector 41 ExtUeAppMecAppExample.ue.cellularNic.nrRlc.um receivedPacketFromUpperLayer:vector(packetBytes) ETV
attr interpolationmode none
attr recordingmode vector(packetBytes)
attr source receivedPacketFromUpperLayer
vector 42 ExtUeAppMecAppExample.ue.cellularNic.nrMac receivedPacketFromUpperLayer:vector(packetBytes) ETV
attr interpolationmode none
attr recordingmode vector(packetBytes)
attr source receivedPacketFromUpperLayer
vector 43 ExtUeAppMecAppExample.gNodeB1.cellularNic.mac avgServedBlocksUl:vector ETV
attr recordingmode vector
attr source avgServedBlocksUl
attr title "Avg Served Blocks Ul"
attr unit blocks
vector 44 ExtUeAppMecAppExample.gNodeB1.cellularNic.mac avgServedBlocksDl:vector ETV
attr recordingmode vector
attr source avgServedBlocksDl
attr title "Avg Served Blocks Dl"
attr unit blocks
vector 45 ExtUeAppMecAppExample.ue.cellularNic.nrMac sentPacketToLowerLayer:vector(packetBytes) ETV
attr interpolationmode none
attr recordingmode vector(packetBytes)
attr source sentPacketToLowerLayer
vector 46 ExtUeAppMecAppExample.ue.cellularNic.nrChannelModel[0] measuredSinrUl:vector ETV
attr recordingmode vector
attr source measuredSinrUl
attr title "SINR measured at feedback computation, UL"
attr unit dB
vector 47 ExtUeAppMecAppExample.ue.cellularNic.nrChannelModel[0] measuredSinrDl:vector ETV
attr recordingmode vector
attr source measuredSinrDl
attr title "SINR measured at feedback computation, DL"
attr unit dB
vector 48 ExtUeAppMecAppExample.gNodeB1.cellularNic.mac receivedPacketFromLowerLayer:vector(packetBytes) ETV
attr interpolationmode none
attr recordingmode vector(packetBytes)
attr source receivedPacketFromLowerLayer
vector 49 ExtUeAppMecAppExample.gNodeB1.cellularNic.mac sentPacketToLowerLayer:vector(packetBytes) ETV
attr interpolationmode none
attr recordingmode vector(packetBytes)
attr source sentPacketToLowerLayer
vector 50 ExtUeAppMecAppExample.ue.cellularNic.nrMac receivedPacketFromLowerLayer:vector(packetBytes) ETV
attr interpolationmode none
attr recordingmode vector(packetBytes)
attr source receivedPacketFromLowerLayer
vector 51 ExtUeAppMecAppExample.ue.cellularNic.nrMac sentPacketToUpperLayer:vector(packetBytes) ETV
attr interpolationmode none
attr recordingmode vector(packetBytes)
attr source sentPacketToUpperLayer
vector 52 ExtUeAppMecAppExample.ue.cellularNic.nrRlc.um rlcPacketLossUl:vector ETV
attr recordingmode vector
attr source rlcPacketLossUl
attr title "rlc Packet Loss"
attr unit ""
vector 53 ExtUeAppMecAppExample.ue.cellularNic.nrRlc.um sentPacketToLowerLayer:vector(packetBytes) ETV
attr interpolationmode none
attr recordingmode vector(packetBytes)
attr source sentPacketToLowerLayer
vector 54 ExtUeAppMecAppExample.ue.cellularNic.nrPhy averageCqiUl:vector ETV
attr recordingmode vector
attr source averageCqiUl
attr title "Average Cqi reported in UL"
attr unit cqi
vector 55 ExtUeAppMecAppExample.ue.cellularNic.nrChannelModel[0] rcvdSinrUl:vector ETV
attr recordingmode vector
attr source rcvdSinrUl
attr title "SINR measured at packet reception, UL"
attr unit dB
vector 56 ExtUeAppMecAppExample.ue.cellularNic.nrMac macDelayUl:vector ETV
attr recordingmode vector
attr source macDelayUl
attr title "Delay at the MAC layer UL"
attr unit s
vector 57 ExtUeAppMecAppExample.gNodeB1.cellularNic.mac sentPacketToUpperLayer:vector(packetBytes) ETV
attr interpolationmode none
attr recordingmode vector(packetBytes)
attr source sentPacketToUpperLayer
vector 58 ExtUeAppMecAppExample.gNodeB1.cellularNic.rlc.um receivedPacketFromLowerLayer:vector(packetBytes) ETV
attr interpolationmode none
attr recordingmode vector(packetBytes)
attr source receivedPacketFromLowerLayer
vector 59 ExtUeAppMecAppExample.ue.cellularNic.nrRlc.um rlcPduThroughputUl:vector ETV
attr recordingmode vector
attr source rlcPduThroughputUl
attr title "Throughput at the rlc layer UL"
attr unit Bps
vector 60 ExtUeAppMecAppExample.ue.cellularNic.nrRlc.um rlcPduDelayUl:vector ETV
attr recordingmode vector
attr source rlcPduDelayUl
attr title "Delay at the rlc layer UL"
attr unit s
vector 61 ExtUeAppMecAppExample.ue.cellularNic.nrRlc.um rlcThroughputUl:vector ETV
attr recordingmode vector
attr source rlcThroughputUl
attr title "Throughput at the rlc layer UL"
attr unit Bps
vector 62 ExtUeAppMecAppExample.ue.cellularNic.nrRlc.um rlcPacketLossTotal:vector ETV
attr recordingmode vector
attr source rlcPacketLossTotal
attr title "rlc Packet Loss"
attr unit ""
vector 63 ExtUeAppMecAppExample.ue.cellularNic.nrRlc.um rlcDelayUl:vector ETV
attr recordingmode vector
attr source rlcDelayUl
attr title "Delay at the rlc layer UL"
attr unit s
vector 64 ExtUeAppMecAppExample.gNodeB1.cellularNic.rlc.um sentPacketToUpperLayer:vector(packetBytes) ETV
attr interpolationmode none
attr recordingmode vector(packetBytes)
attr source sentPacketToUpperLayer
vector 65 ExtUeAppMecAppExample.ue.cellularNic.nrRlc.um rlcPduPacketLossUl:vector ETV
attr recordingmode vector
attr source rlcPduPacketLossUl
attr title "rlc Packet Loss"
attr unit ""
vector 66 ExtUeAppMecAppExample.gNodeB1.cellularNic.pdcpRrc receivedPacketFromLowerLayer:vector(packetBytes) ETV
attr interpolationmode none
attr recordingmode vector(packetBytes)
attr source receivedPacketFromLowerLayer
vector 67 ExtUeAppMecAppExample.gNodeB1.cellularNic.pdcpRrc sentPacketToUpperLayer:vector(packetBytes) ETV
attr interpolationmode none
attr recordingmode vector(packetBytes)
attr source sentPacketToUpperLayer
vector 68 ExtUeAppMecAppExample.gNodeB1.udp packetSent:vector(packetBytes) ETV
attr interpolationmode none
attr recordingmode vector(packetBytes)
attr source packetSent
attr title "packets sent, packetBytes"
vector 69 ExtUeAppMecAppExample.gNodeB1.pppIf.queue incomingPacketLengths:vector ETV
attr interpolationmode none
attr recordingmode vector
attr source packetLength(packetPushStarted)
attr title "incoming packet lengths"
attr unit b
vector 70 ExtUeAppMecAppExample.gNodeB1.pppIf.queue queueingTime:vector ETV
attr interpolationmode none
attr recordingmode vector
attr source queueingTime(packetPulled)
attr title "queueing times"
attr unit s
vector 71 ExtUeAppMecAppExample.gNodeB1.pppIf.queue outgoingPacketLengths:vector ETV
attr interpolationmode none
attr recordingmode vector
attr source packetLength(packetPulled)
attr title "outgoing packet lengths"
attr unit b
vector 72 ExtUeAppMecAppExample.gNodeB1.pppIf.ppp txPk:vector(packetBytes) ETV
attr interpolationmode none
attr recordingmode vector(packetBytes)
attr source packetSentToLower
attr title "packets transmitted, packetBytes"
vector 73 ExtUeAppMecAppExample.gNodeB1.pppIf.queue queueLength:vector ETV
attr autoWarmupFilter false
attr interpolationmode sample-hold
attr recordingmode vector
attr source "warmup(atomic(constant0(packetPushEnded) + count(packetPushStarted) - count(packetPulled) - count(packetRemoved) - count(packetDropped)))"
attr title "queue length"
attr unit pk
vector 74 ExtUeAppMecAppExample.gNodeB1.pppIf.queue queueBitLength:vector ETV
attr autoWarmupFilter false
attr interpolationmode sample-hold
attr recordingmode vector
attr source "warmup(atomic(constant0(packetPushEnded) + sum(packetLength(packetPushStarted)) - sum(packetLength(packetPulled)) - sum(packetLength(packetRemoved)) - sum(packetLength(packetDropped))))"
attr title "queue bit length"
attr unit b
vector 75 ExtUeAppMecAppExample.iUpf.ppp[0].ppp rxPkOk:vector(packetBytes) ETV
attr interpolationmode none
attr recordingmode vector(packetBytes)
attr source rxPkOk
attr title "packets received OK, packetBytes"
vector 76 ExtUeAppMecAppExample.iUpf.ppp[0].ppp passedUpPk:vector(packetBytes) ETV
attr interpolationmode none
attr recordingmode vector(packetBytes)
attr source packetSentToUpper
attr title "packets passed to higher layer, packetBytes"
vector 77 ExtUeAppMecAppExample.iUpf.ppp[1].queue incomingPacketLengths:vector ETV
attr interpolationmode none
attr recordingmode vector
attr source packetLength(packetPushStarted)
attr title "incoming packet lengths"
attr unit b
vector 78 ExtUeAppMecAppExample.iUpf.ppp[1].queue queueingTime:vector ETV
attr interpolationmode none
attr recordingmode vector
attr source queueingTime(packetPulled)
attr title "queueing times"
attr unit s
vector 79 ExtUeAppMecAppExample.iUpf.ppp[1].queue outgoingPacketLengths:vector ETV
attr interpolationmode none
attr recordingmode vector
attr source packetLength(packetPulled)
attr title "outgoing packet lengths"
attr unit b
vector 80 ExtUeAppMecAppExample.iUpf.ppp[1].ppp txPk:vector(packetBytes) ETV
attr interpolationmode none
attr recordingmode vector(packetBytes)
attr source packetSentToLower
attr title "packets transmitted, packetBytes"
vector 81 ExtUeAppMecAppExample.iUpf.ppp[1].queue queueLength:vector ETV
attr autoWarmupFilter false
attr interpolationmode sample-hold
attr recordingmode vector
attr source "warmup(atomic(constant0(packetPushEnded) + count(packetPushStarted) - count(packetPulled) - count(packetRemoved) - count(packetDropped)))"
attr title "queue length"
attr unit pk
vector 82 ExtUeAppMecAppExample.iUpf.ppp[1].queue queueBitLength:vector ETV
attr autoWarmupFilter false
attr interpolationmode sample-hold
attr recordingmode vector
attr source "warmup(atomic(constant0(packetPushEnded) + sum(packetLength(packetPushStarted)) - sum(packetLength(packetPulled)) - sum(packetLength(packetRemoved)) - sum(packetLength(packetDropped))))"
attr title "queue bit length"
attr unit b
vector 83 ExtUeAppMecAppExample.upf.ppp[0].ppp rxPkOk:vector(packetBytes) ETV
attr interpolationmode none
attr recordingmode vector(packetBytes)
attr source rxPkOk
attr title "packets received OK, packetBytes"
vector 84 ExtUeAppMecAppExample.upf.ppp[0].ppp passedUpPk:vector(packetBytes) ETV
attr interpolationmode none
attr recordingmode vector(packetBytes)
attr source packetSentToUpper
attr title "packets passed to higher layer, packetBytes"
vector 85 ExtUeAppMecAppExample.upf.udp packetReceived:vector(packetBytes) ETV
attr interpolationmode none
attr recordingmode vector(packetBytes)
attr source packetReceived
attr title "packets received, packetBytes"
vector 86 ExtUeAppMecAppExample.upf.pppIf.queue incomingPacketLengths:vector ETV
attr interpolationmode none
attr recordingmode vector
attr source packetLength(packetPushStarted)
attr title "incoming packet lengths"
attr unit b
vector 87 ExtUeAppMecAppExample.upf.pppIf.queue queueingTime:vector ETV
attr interpolationmode none
attr recordingmode vector
attr source queueingTime(packetPulled)
attr title "queueing times"
attr unit s
vector 88 ExtUeAppMecAppExample.upf.pppIf.queue outgoingPacketLengths:vector ETV
attr interpolationmode none
attr recordingmode vector
attr source packetLength(packetPulled)
attr title "outgoing packet lengths"
attr unit b
vector 89 ExtUeAppMecAppExample.upf.pppIf.ppp txPk:vector(packetBytes) ETV
attr interpolationmode none
attr recordingmode vector(packetBytes)
attr source packetSentToLower
attr title "packets transmitted, packetBytes"
vector 90 ExtUeAppMecAppExample.upf.pppIf.queue queueLength:vector ETV
attr autoWarmupFilter false
attr interpolationmode sample-hold
attr recordingmode vector
attr source "warmup(atomic(constant0(packetPushEnded) + count(packetPushStarted) - count(packetPulled) - count(packetRemoved) - count(packetDropped)))"
attr title "queue length"
attr unit pk
vector 91 ExtUeAppMecAppExample.upf.pppIf.queue queueBitLength:vector ETV
attr autoWarmupFilter false
attr interpolationmode sample-hold
attr recordingmode vector
attr source "warmup(atomic(constant0(packetPushEnded) + sum(packetLength(packetPushStarted)) - sum(packetLength(packetPulled)) - sum(packetLength(packetRemoved)) - sum(packetLength(packetDropped))))"
attr title "queue bit length"
attr unit b
vector 92 ExtUeAppMecAppExample.ualcmp.pppIf.ppp rxPkOk:vector(packetBytes) ETV
attr interpolationmode none
attr recordingmode vector(packetBytes)
attr source rxPkOk
attr title "packets received OK, packetBytes"
vector 93 ExtUeAppMecAppExample.ualcmp.pppIf.ppp passedUpPk:vector(packetBytes) ETV
attr interpolationmode none
attr recordingmode vector(packetBytes)
attr source packetSentToUpper
attr title "packets passed to higher layer, packetBytes"
vector 94 ExtUeAppMecAppExample.ualcmp.tcp.conn-8 rcvSeq:vector ETV
attr interpolationmode sample-hold
attr recordingmode vector
vector 95 ExtUeAppMecAppExample.ualcmp.tcp.conn-8 rcvAck:vector ETV
attr interpolationmode sample-hold
attr recordingmode vector
vector 96 ExtUeAppMecAppExample.ualcmp.tcp.conn-8 tcpRcvPayloadBytes:vector ETV
attr interpolationmode sample-hold
attr recordingmode vector
vector 97 ExtUeAppMecAppExample.ualcmp.tcp.conn-26 rcvAdv:vector ETV
attr interpolationmode sample-hold
attr recordingmode vector
vector 98 ExtUeAppMecAppExample.ualcmp.tcp.conn-26 sndWnd:vector ETV
attr interpolationmode sample-hold
attr recordingmode vector
vector 99 ExtUeAppMecAppExample.ualcmp.tcp.conn-26 tcpRcvQueueBytes:vector ETV
attr interpolationmode sample-hold
attr recordingmode vector
vector 100 ExtUeAppMecAppExample.ualcmp.tcp.conn-26 rcvWnd:vector ETV
attr interpolationmode sample-hold
attr recordingmode vector
vector 101 ExtUeAppMecAppExample.ualcmp.tcp.conn-26 sndAck:vector ETV
attr interpolationmode sample-hold
attr recordingmode vector
vector 102 ExtUeAppMecAppExample.ualcmp.pppIf.queue incomingPacketLengths:vector ETV
attr interpolationmode none
attr recordingmode vector
attr source packetLength(packetPushStarted)
attr title "incoming packet lengths"
attr unit b
vector 103 ExtUeAppMecAppExample.ualcmp.pppIf.queue queueingTime:vector ETV
attr interpolationmode none
attr recordingmode vector
attr source queueingTime(packetPulled)
attr title "queueing times"
attr unit s
vector 104 ExtUeAppMecAppExample.ualcmp.pppIf.queue outgoingPacketLengths:vector ETV
attr interpolationmode none
attr recordingmode vector
attr source packetLength(packetPulled)
attr title "outgoing packet lengths"
attr unit b
vector 105 ExtUeAppMecAppExample.ualcmp.pppIf.ppp txPk:vector(packetBytes) ETV
attr interpolationmode none
attr recordingmode vector(packetBytes)
attr source packetSentToLower
attr title "packets transmitted, packetBytes"
vector 106 ExtUeAppMecAppExample.ualcmp.pppIf.queue queueLength:vector ETV
attr autoWarmupFilter false
attr interpolationmode sample-hold
attr recordingmode vector
attr source "warmup(atomic(constant0(packetPushEnded) + count(packetPushStarted) - count(packetPulled) - count(packetRemoved) - count(packetDropped)))"
attr title "queue length"
attr unit pk
vector 107 ExtUeAppMecAppExample.ualcmp.pppIf.queue queueBitLength:vector ETV
attr autoWarmupFilter false
attr interpolationmode sample-hold
attr recordingmode vector
attr source "warmup(atomic(constant0(packetPushEnded) + sum(packetLength(packetPushStarted)) - sum(packetLength(packetPulled)) - sum(packetLength(packetRemoved)) - sum(packetLength(packetDropped))))"
attr title "queue bit length"
attr unit b
vector 108 ExtUeAppMecAppExample.upf.pppIf.ppp rxPkOk:vector(packetBytes) ETV
attr interpolationmode none
attr recordingmode vector(packetBytes)
attr source rxPkOk
attr title "packets received OK, packetBytes"
vector 109 ExtUeAppMecAppExample.upf.pppIf.ppp passedUpPk:vector(packetBytes) ETV
attr interpolationmode none
attr recordingmode vector(packetBytes)
attr source packetSentToUpper
attr title "packets passed to higher layer, packetBytes"
vector 110 ExtUeAppMecAppExample.upf.udp packetSent:vector(packetBytes) ETV
attr interpolationmode none
attr recordingmode vector(packetBytes)
attr source packetSent
attr title "packets sent, packetBytes"
vector 111 ExtUeAppMecAppExample.upf.ppp[0].queue incomingPacketLengths:vector ETV
attr interpolationmode none
attr recordingmode vector
attr source packetLength(packetPushStarted)
attr title "incoming packet lengths"
attr unit b
vector 112 ExtUeAppMecAppExample.upf.ppp[0].queue queueingTime:vector ETV
attr interpolationmode none
attr recordingmode vector
attr source queueingTime(packetPulled)
attr title "queueing times"
attr unit s
vector 113 ExtUeAppMecAppExample.upf.ppp[0].queue outgoingPacketLengths:vector ETV
attr interpolationmode none
attr recordingmode vector
attr source packetLength(packetPulled)
attr title "outgoing packet lengths"
attr unit b
vector 114 ExtUeAppMecAppExample.upf.ppp[0].ppp txPk:vector(packetBytes) ETV
attr interpolationmode none
attr recordingmode vector(packetBytes)
attr source packetSentToLower
attr title "packets transmitted, packetBytes"
vector 115 ExtUeAppMecAppExample.upf.ppp[0].queue queueLength:vector ETV
attr autoWarmupFilter false
attr interpolationmode sample-hold
attr recordingmode vector
attr source "warmup(atomic(constant0(packetPushEnded) + count(packetPushStarted) - count(packetPulled) - count(packetRemoved) - count(packetDropped)))"
attr title "queue length"
attr unit pk
vector 116 ExtUeAppMecAppExample.upf.ppp[0].queue queueBitLength:vector ETV
attr autoWarmupFilter false
attr interpolationmode sample-hold
attr recordingmode vector
attr source "warmup(atomic(constant0(packetPushEnded) + sum(packetLength(packetPushStarted)) - sum(packetLength(packetPulled)) - sum(packetLength(packetRemoved)) - sum(packetLength(packetDropped))))"
attr title "queue bit length"
attr unit b
vector 117 ExtUeAppMecAppExample.iUpf.ppp[1].ppp rxPkOk:vector(packetBytes) ETV
attr interpolationmode none
attr recordingmode vector(packetBytes)
attr source rxPkOk
attr title "packets received OK, packetBytes"
vector 118 ExtUeAppMecAppExample.iUpf.ppp[1].ppp passedUpPk:vector(packetBytes) ETV
attr interpolationmode none
attr recordingmode vector(packetBytes)
attr source packetSentToUpper
attr title "packets passed to higher layer, packetBytes"
vector 119 ExtUeAppMecAppExample.iUpf.ppp[0].queue incomingPacketLengths:vector ETV
attr interpolationmode none
attr recordingmode vector
attr source packetLength(packetPushStarted)
attr title "incoming packet lengths"
attr unit b
vector 120 ExtUeAppMecAppExample.iUpf.ppp[0].queue queueingTime:vector ETV
attr interpolationmode none
attr recordingmode vector
attr source queueingTime(packetPulled)
attr title "queueing times"
attr unit s
vector 121 ExtUeAppMecAppExample.iUpf.ppp[0].queue outgoingPacketLengths:vector ETV
attr interpolationmode none
attr recordingmode vector
attr source packetLength(packetPulled)
attr title "outgoing packet lengths"
attr unit b
vector 122 ExtUeAppMecAppExample.iUpf.ppp[0].ppp txPk:vector(packetBytes) ETV
attr interpolationmode none
attr recordingmode vector(packetBytes)
attr source packetSentToLower
attr title "packets transmitted, packetBytes"
vector 123 ExtUeAppMecAppExample.iUpf.ppp[0].queue queueLength:vector ETV
attr autoWarmupFilter false
attr interpolationmode sample-hold
attr recordingmode vector
attr source "warmup(atomic(constant0(packetPushEnded) + count(packetPushStarted) - count(packetPulled) - count(packetRemoved) - count(packetDropped)))"
attr title "queue length"
attr unit pk
vector 124 ExtUeAppMecAppExample.iUpf.ppp[0].queue queueBitLength:vector ETV
attr autoWarmupFilter false
attr interpolationmode sample-hold
attr recordingmode vector
attr source "warmup(atomic(constant0(packetPushEnded) + sum(packetLength(packetPushStarted)) - sum(packetLength(packetPulled)) - sum(packetLength(packetRemoved)) - sum(packetLength(packetDropped))))"
attr title "queue bit length"
attr unit b
vector 125 ExtUeAppMecAppExample.gNodeB1.pppIf.ppp rxPkOk:vector(packetBytes) ETV
attr interpolationmode none
attr recordingmode vector(packetBytes)
attr source rxPkOk
attr title "packets received OK, packetBytes"
vector 126 ExtUeAppMecAppExample.gNodeB1.pppIf.ppp passedUpPk:vector(packetBytes) ETV
attr interpolationmode none
attr recordingmode vector(packetBytes)
attr source packetSentToUpper
attr title "packets passed to higher layer, packetBytes"
vector 127 ExtUeAppMecAppExample.gNodeB1.udp packetReceived:vector(packetBytes) ETV
attr interpolationmode none
attr recordingmode vector(packetBytes)
attr source packetReceived
attr title "packets received, packetBytes"
vector 128 ExtUeAppMecAppExample.gNodeB1.cellularNic.pdcpRrc receivedPacketFromUpperLayer:vector(packetBytes) ETV
attr interpolationmode none
attr recordingmode vector(packetBytes)
attr source receivedPacketFromUpperLayer
vector 129 ExtUeAppMecAppExample.gNodeB1.cellularNic.pdcpRrc sentPacketToLowerLayer:vector(packetBytes) ETV
attr interpolationmode none
attr recordingmode vector(packetBytes)
attr source sentPacketToLowerLayer
vector 130 ExtUeAppMecAppExample.gNodeB1.cellularNic.rlc.um receivedPacketFromUpperLayer:vector(packetBytes) ETV
attr interpolationmode none
attr recordingmode vector(packetBytes)
attr source receivedPacketFromUpperLayer
vector 131 ExtUeAppMecAppExample.gNodeB1.cellularNic.mac receivedPacketFromUpperLayer:vector(packetBytes) ETV
attr interpolationmode none
attr recordingmode vector(packetBytes)
attr source receivedPacketFromUpperLayer
vector 132 ExtUeAppMecAppExample.gNodeB1.cellularNic.rlc.um rlcPacketLossDl:vector ETV
attr recordingmode vector
attr source rlcPacketLossDl
attr title "rlc Packet Loss"
attr unit ""
vector 133 ExtUeAppMecAppExample.gNodeB1.cellularNic.rlc.um sentPacketToLowerLayer:vector(packetBytes) ETV
attr interpolationmode none
attr recordingmode vector(packetBytes)
attr source sentPacketToLowerLayer
vector 134 ExtUeAppMecAppExample.ue.cellularNic.nrMac harqErrorRate_1st_Ul:vector ETV
attr recordingmode vector
attr source harqErrorRate_1st_Ul
attr title "Harq Error Rate Ul (1st tx)"
attr unit ""
vector 135 ExtUeAppMecAppExample.ue.cellularNic.nrMac harqErrorRateUl:vector ETV
attr recordingmode vector
attr source harqErrorRateUl
attr title "Harq Error Rate Ul"
attr unit ""
vector 136 ExtUeAppMecAppExample.ue.cellularNic.nrMac harqTxAttemptsUl:vector ETV
attr recordingmode vector
attr source harqTxAttemptsUl
attr title "Harq Tx Attempts Ul"
attr unit ""
vector 137 ExtUeAppMecAppExample.ue.cellularNic.nrPhy averageCqiDl:vector ETV
attr recordingmode vector
attr source averageCqiDl
attr title "Average Cqi reported in DL"
attr unit cqi
vector 138 ExtUeAppMecAppExample.ue.cellularNic.nrChannelModel[0] distance:vector ETV
attr recordingmode vector
attr source distance
attr title "distance between UE and serving base station"
attr unit meters
vector 139 ExtUeAppMecAppExample.ue.cellularNic.nrChannelModel[0] rcvdSinrDl:vector ETV
attr recordingmode vector
attr source rcvdSinrDl
attr title "SINR measured at packet reception, DL"
attr unit dB
vector 140 ExtUeAppMecAppExample.gNodeB1.cellularNic.mac macDelayDl:vector ETV
attr recordingmode vector
attr source macDelayDl
attr title "Delay at the MAC layer UL"
attr unit s
vector 141 ExtUeAppMecAppExample.ue.cellularNic.nrRlc.um receivedPacketFromLowerLayer:vector(packetBytes) ETV
attr interpolationmode none
attr recordingmode vector(packetBytes)
attr source receivedPacketFromLowerLayer
vector 142 ExtUeAppMecAppExample.ue.cellularNic.nrRlc.um rlcPduThroughputDl:vector ETV
attr recordingmode vector
attr source rlcPduThroughputDl
attr title "Throughput at the rlc layer DL"
attr unit Bps
vector 143 ExtUeAppMecAppExample.ue.cellularNic.nrRlc.um rlcPduDelayDl:vector ETV
attr recordingmode vector
attr source rlcPduDelayDl
attr title "Delay at the rlc layer UL"
attr unit s
vector 144 ExtUeAppMecAppExample.ue.cellularNic.nrRlc.um rlcThroughputDl:vector ETV
attr recordingmode vector
attr source rlcThroughputDl
attr title "Throughput at the rlc layer DL"
attr unit Bps
vector 145 ExtUeAppMecAppExample.ue.cellularNic.nrRlc.um rlcPacketLossDl:vector ETV
attr recordingmode vector
attr source rlcPacketLossDl
attr title "rlc Packet Loss"
attr unit ""
vector 146 ExtUeAppMecAppExample.ue.cellularNic.nrRlc.um rlcDelayDl:vector ETV
attr recordingmode vector
attr source rlcDelayDl
attr title "Delay at the rlc layer DL"
attr unit s
vector 147 ExtUeAppMecAppExample.ue.cellularNic.nrRlc.um sentPacketToUpperLayer:vector(packetBytes) ETV
attr interpolationmode none
attr recordingmode vector(packetBytes)
attr source sentPacketToUpperLayer
vector 148 ExtUeAppMecAppExample.ue.cellularNic.nrRlc.um rlcPduPacketLossDl:vector ETV
attr recordingmode vector
attr source rlcPduPacketLossDl
attr title "rlc Packet Loss"
attr unit ""
vector 149 ExtUeAppMecAppExample.ue.cellularNic.pdcpRrc receivedPacketFromLowerLayer:vector(packetBytes) ETV
attr interpolationmode none
attr recordingmode vector(packetBytes)
attr source receivedPacketFromLowerLayer
vector 150 ExtUeAppMecAppExample.ue.cellularNic.pdcpRrc sentPacketToUpperLayer:vector(packetBytes) ETV
attr interpolationmode none
attr recordingmode vector(packetBytes)
attr source sentPacketToUpperLayer
vector 151 ExtUeAppMecAppExample.ue.tcp.conn-25 rcvSeq:vector ETV
attr interpolationmode sample-hold
attr recordingmode vector
vector 152 ExtUeAppMecAppExample.ue.tcp.conn-25 rcvAck:vector ETV
attr interpolationmode sample-hold
attr recordingmode vector
vector 153 ExtUeAppMecAppExample.ue.tcp.conn-25 tcpRcvPayloadBytes:vector ETV
attr interpolationmode sample-hold
attr recordingmode vector
vector 154 ExtUeAppMecAppExample.ue.tcp.conn-25 sndWnd:vector ETV
attr interpolationmode sample-hold
attr recordingmode vector
vector 155 ExtUeAppMecAppExample.ue.cellularNic.nrMac harqErrorRate_1st_Dl:vector ETV
attr recordingmode vector
attr source harqErrorRate_1st_Dl
attr title "Harq Error Rate Dl (1st tx)"
attr unit ""
vector 156 ExtUeAppMecAppExample.ue.cellularNic.nrMac harqErrorRateDl:vector ETV
attr recordingmode vector
attr source harqErrorRateDl
attr title "Harq Error Rate Dl"
attr unit ""
vector 157 ExtUeAppMecAppExample.ue.cellularNic.nrMac harqTxAttemptsDl:vector ETV
attr recordingmode vector
attr source harqTxAttemptsDl
attr title "Harq Tx Attempts Dl"
attr unit ""
vector 158 ExtUeAppMecAppExample.ualcmp.tcp.conn-26 rcvSeq:vector ETV
attr interpolationmode sample-hold
attr recordingmode vector
vector 159 ExtUeAppMecAppExample.ualcmp.tcp.conn-26 rcvAck:vector ETV
attr interpolationmode sample-hold
attr recordingmode vector
vector 160 ExtUeAppMecAppExample.ualcmp.tcp.conn-26 tcpRcvPayloadBytes:vector ETV
attr interpolationmode sample-hold
attr recordingmode vector
vector 161 ExtUeAppMecAppExample.ualcmp.tcp.conn-26 unacked:vector ETV
attr interpolationmode sample-hold
attr recordingmode vector
vector 162 ExtUeAppMecAppExample.ue.eth[0].socket packetReceived:vector(packetBytes) ETV
attr interpolationmode none
attr recordingmode vector(packetBytes)
attr source packetReceived
attr title "packets received, packetBytes"
vector 163 ExtUeAppMecAppExample.ue.eth[0].socket packetSentFromUpper:vector(packetBytes) ETV
attr interpolationmode none
attr recordingmode vector(packetBytes)
attr source packetSentToUpper
attr title "packets sent to higher layer, packetBytes"
vector 164 ExtUeAppMecAppExample.ue.encap decapPk:vector(packetBytes) ETV
attr interpolationmode none
attr recordingmode vector(packetBytes)
attr source decapPk
attr title "packets decapsulated, packetBytes"
vector 165 ExtUeAppMecAppExample.ue.udp packetReceived:vector(packetBytes) ETV
attr interpolationmode none
attr recordingmode vector(packetBytes)
attr source packetReceived
attr title "packets received, packetBytes"
vector 166 ExtUeAppMecAppExample.ue.tcp.conn-25 sndNxt:vector ETV
attr interpolationmode sample-hold
attr recordingmode vector
vector 167 ExtUeAppMecAppExample.ue.tcp.conn-25 unacked:vector ETV
attr interpolationmode sample-hold
attr recordingmode vector
vector 168 ExtUeAppMecAppExample.gNodeB1.pppIf.queue incomingDataRate:vector ETV
attr interpolationmode linear
attr recordingmode vector
attr source throughput(packetPushStarted)
attr title "incoming datarate"
attr unit bps
vector 169 ExtUeAppMecAppExample.gNodeB1.pppIf.queue outgoingDataRate:vector ETV
attr interpolationmode linear
attr recordingmode vector
attr source throughput(packetPulled)
attr title "outgoing datarate"
attr unit bps
vector 170 ExtUeAppMecAppExample.iUpf.ppp[1].queue incomingDataRate:vector ETV
attr interpolationmode linear
attr recordingmode vector
attr source throughput(packetPushStarted)
attr title "incoming datarate"
attr unit bps
vector 171 ExtUeAppMecAppExample.iUpf.ppp[1].queue outgoingDataRate:vector ETV
attr interpolationmode linear
attr recordingmode vector
attr source throughput(packetPulled)
attr title "outgoing datarate"
attr unit bps
vector 172 ExtUeAppMecAppExample.upf.pppIf.queue incomingDataRate:vector ETV
attr interpolationmode linear
attr recordingmode vector
attr source throughput(packetPushStarted)
attr title "incoming datarate"
attr unit bps
vector 173 ExtUeAppMecAppExample.upf.pppIf.queue outgoingDataRate:vector ETV
attr interpolationmode linear
attr recordingmode vector
attr source throughput(packetPulled)
attr title "outgoing datarate"
attr unit bps
vector 174 ExtUeAppMecAppExample.ualcmp.tcp.conn-26 dupAcks:vector ETV
attr interpolationmode sample-hold
attr recordingmode vector
vector 175 ExtUeAppMecAppExample.ualcmp.pppIf.queue incomingDataRate:vector ETV
attr interpolationmode linear
attr recordingmode vector
attr source throughput(packetPushStarted)
attr title "incoming datarate"
attr unit bps
vector 176 ExtUeAppMecAppExample.ualcmp.pppIf.queue outgoingDataRate:vector ETV
attr interpolationmode linear
attr recordingmode vector
attr source throughput(packetPulled)
attr title "outgoing datarate"
attr unit bps
vector 177 ExtUeAppMecAppExample.upf.ppp[0].queue incomingDataRate:vector ETV
attr interpolationmode linear
attr recordingmode vector
attr source throughput(packetPushStarted)
attr title "incoming datarate"
attr unit bps
vector 178 ExtUeAppMecAppExample.upf.ppp[0].queue outgoingDataRate:vector ETV
attr interpolationmode linear
attr recordingmode vector
attr source throughput(packetPulled)
attr title "outgoing datarate"
attr unit bps
vector 179 ExtUeAppMecAppExample.iUpf.ppp[0].queue incomingDataRate:vector ETV
attr interpolationmode linear
attr recordingmode vector
attr source throughput(packetPushStarted)
attr title "incoming datarate"
attr unit bps
vector 180 ExtUeAppMecAppExample.iUpf.ppp[0].queue outgoingDataRate:vector ETV
attr interpolationmode linear
attr recordingmode vector
attr source throughput(packetPulled)
attr title "outgoing datarate"
attr unit bps
vector 181 ExtUeAppMecAppExample.ualcmp.ualcmpApp responseTimeStat:vector ETV
attr recordingmode vector
attr source responseTime
attr title "Response time of foreground requests"
vector 182 ExtUeAppMecAppExample.ualcmp.tcp.conn-26 sndNxt:vector ETV
attr interpolationmode sample-hold
attr recordingmode vector
vector 183 ExtUeAppMecAppExample.ue.tcp.conn-25 rtt:vector ETV
attr interpolationmode sample-hold
attr recordingmode vector
vector 184 ExtUeAppMecAppExample.ue.tcp.conn-25 srtt:vector ETV
attr interpolationmode sample-hold
attr recordingmode vector
vector 185 ExtUeAppMecAppExample.ue.tcp.conn-25 rttvar:vector ETV
attr interpolationmode sample-hold
attr recordingmode vector
vector 186 ExtUeAppMecAppExample.ue.tcp.conn-25 rto:vector ETV
attr interpolationmode sample-hold
attr recordingmode vector
vector 187 ExtUeAppMecAppExample.ue.tcp.conn-25 cwnd:vector ETV
attr interpolationmode sample-hold
attr recordingmode vector
vector 188 ExtUeAppMecAppExample.ue.tcp.conn-25 ssthresh:vector ETV
attr interpolationmode sample-hold
attr recordingmode vector
vector 189 ExtUeAppMecAppExample.ue.tcp.conn-25 dupAcks:vector ETV
attr interpolationmode sample-hold
attr recordingmode vector
vector 190 ExtUeAppMecAppExample.ualcmp.tcp.conn-26 rtt:vector ETV
attr interpolationmode sample-hold
attr recordingmode vector
vector 191 ExtUeAppMecAppExample.ualcmp.tcp.conn-26 srtt:vector ETV
attr interpolationmode sample-hold
attr recordingmode vector
vector 192 ExtUeAppMecAppExample.ualcmp.tcp.conn-26 rttvar:vector ETV
attr interpolationmode sample-hold
attr recordingmode vector
vector 193 ExtUeAppMecAppExample.ualcmp.tcp.conn-26 rto:vector ETV
attr interpolationmode sample-hold
attr recordingmode vector
vector 194 ExtUeAppMecAppExample.ualcmp.tcp.conn-26 cwnd:vector ETV
attr interpolationmode sample-hold
attr recordingmode vector
vector 195 ExtUeAppMecAppExample.ualcmp.tcp.conn-26 ssthresh:vector ETV
attr interpolationmode sample-hold
attr recordingmode vector
vector 196 ExtUeAppMecAppExample.ue.udp packetSent:vector(packetBytes) ETV
attr interpolationmode none
attr recordingmode vector(packetBytes)
attr source packetSent
attr title "packets sent, packetBytes"
vector 197 ExtUeAppMecAppExample.ue.ipv4.arp arpRequestSent:vector(packetBytes) ETV
attr recordingmode vector(packetBytes)
attr source arpRequestSent
attr title "ARP request sent, packetBytes"
vector 198 ExtUeAppMecAppExample.ue.encap encapPk:vector(packetBytes) ETV
attr interpolationmode none
attr recordingmode vector(packetBytes)
attr source encapPk
attr title "packets encapsulated, packetBytes"
vector 199 ExtUeAppMecAppExample.ue.eth[0].socket packetReceivedFromUpper:vector(packetBytes) ETV
attr interpolationmode none
attr recordingmode vector(packetBytes)
attr source packetReceivedFromUpper
attr title "packets received from higher layer, packetBytes"
vector 200 ExtUeAppMecAppExample.ue.eth[0].socket packetSent:vector(packetBytes) ETV
attr interpolationmode none
attr recordingmode vector(packetBytes)
attr source packetSent
attr title "packets sent, packetBytes"
vector 201 ExtUeAppMecAppExample.ue.ipv4.arp arpReplySent:vector(packetBytes) ETV
attr recordingmode vector(packetBytes)
attr source arpReplySent
attr title "ARP replies sent, packetBytes"
vector 202 ExtUeAppMecAppExample.iUpf.ppp[2].queue incomingPacketLengths:vector ETV
attr interpolationmode none
attr recordingmode vector
attr source packetLength(packetPushStarted)
attr title "incoming packet lengths"
attr unit b
vector 203 ExtUeAppMecAppExample.iUpf.ppp[2].queue incomingDataRate:vector ETV
attr interpolationmode linear
attr recordingmode vector
attr source throughput(packetPushStarted)
attr title "incoming datarate"
attr unit bps
vector 204 ExtUeAppMecAppExample.iUpf.ppp[2].queue queueingTime:vector ETV
attr interpolationmode none
attr recordingmode vector
attr source queueingTime(packetPulled)
attr title "queueing times"
attr unit s
vector 205 ExtUeAppMecAppExample.iUpf.ppp[2].queue outgoingPacketLengths:vector ETV
attr interpolationmode none
attr recordingmode vector
attr source packetLength(packetPulled)
attr title "outgoing packet lengths"
attr unit b
vector 206 ExtUeAppMecAppExample.iUpf.ppp[2].queue outgoingDataRate:vector ETV
attr interpolationmode linear
attr recordingmode vector
attr source throughput(packetPulled)
attr title "outgoing datarate"
attr unit bps
vector 207 ExtUeAppMecAppExample.iUpf.ppp[2].ppp txPk:vector(packetBytes) ETV
attr interpolationmode none
attr recordingmode vector(packetBytes)
attr source packetSentToLower
attr title "packets transmitted, packetBytes"
vector 208 ExtUeAppMecAppExample.iUpf.ppp[2].queue queueLength:vector ETV
attr autoWarmupFilter false
attr interpolationmode sample-hold
attr recordingmode vector
attr source "warmup(atomic(constant0(packetPushEnded) + count(packetPushStarted) - count(packetPulled) - count(packetRemoved) - count(packetDropped)))"
attr title "queue length"
attr unit pk
vector 209 ExtUeAppMecAppExample.iUpf.ppp[2].queue queueBitLength:vector ETV
attr autoWarmupFilter false
attr interpolationmode sample-hold
attr recordingmode vector
attr source "warmup(atomic(constant0(packetPushEnded) + sum(packetLength(packetPushStarted)) - sum(packetLength(packetPulled)) - sum(packetLength(packetRemoved)) - sum(packetLength(packetDropped))))"
attr title "queue bit length"
attr unit b
vector 210 ExtUeAppMecAppExample.mecHost1.upf_mec.ppp[0].ppp rxPkOk:vector(packetBytes) ETV
attr interpolationmode none
attr recordingmode vector(packetBytes)
attr source rxPkOk
attr title "packets received OK, packetBytes"
vector 211 ExtUeAppMecAppExample.mecHost1.upf_mec.ppp[0].ppp passedUpPk:vector(packetBytes) ETV
attr interpolationmode none
attr recordingmode vector(packetBytes)
attr source packetSentToUpper
attr title "packets passed to higher layer, packetBytes"
vector 212 ExtUeAppMecAppExample.mecHost1.upf_mec.udp packetReceived:vector(packetBytes) ETV
attr interpolationmode none
attr recordingmode vector(packetBytes)
attr source packetReceived
attr title "packets received, packetBytes"
vector 213 ExtUeAppMecAppExample.mecHost1.upf_mec.pppIf.queue incomingPacketLengths:vector ETV
attr interpolationmode none
attr recordingmode vector
attr source packetLength(packetPushStarted)
attr title "incoming packet lengths"
attr unit b
vector 214 ExtUeAppMecAppExample.mecHost1.upf_mec.pppIf.queue incomingDataRate:vector ETV
attr interpolationmode linear
attr recordingmode vector
attr source throughput(packetPushStarted)
attr title "incoming datarate"
attr unit bps
vector 215 ExtUeAppMecAppExample.mecHost1.upf_mec.pppIf.queue queueingTime:vector ETV
attr interpolationmode none
attr recordingmode vector
attr source queueingTime(packetPulled)
attr title "queueing times"
attr unit s
vector 216 ExtUeAppMecAppExample.mecHost1.upf_mec.pppIf.queue outgoingPacketLengths:vector ETV
attr interpolationmode none
attr recordingmode vector
attr source packetLength(packetPulled)
attr title "outgoing packet lengths"
attr unit b
vector 217 ExtUeAppMecAppExample.mecHost1.upf_mec.pppIf.queue outgoingDataRate:vector ETV
attr interpolationmode linear
attr recordingmode vector
attr source throughput(packetPulled)
attr title "outgoing datarate"
attr unit bps
vector 218 ExtUeAppMecAppExample.mecHost1.upf_mec.pppIf.ppp txPk:vector(packetBytes) ETV
attr interpolationmode none
attr recordingmode vector(packetBytes)
attr source packetSentToLower
attr title "packets transmitted, packetBytes"
vector 219 ExtUeAppMecAppExample.mecHost1.upf_mec.pppIf.queue queueLength:vector ETV
attr autoWarmupFilter false
attr interpolationmode sample-hold
attr recordingmode vector
attr source "warmup(atomic(constant0(packetPushEnded) + count(packetPushStarted) - count(packetPulled) - count(packetRemoved) - count(packetDropped)))"
attr title "queue length"
attr unit pk
vector 220 ExtUeAppMecAppExample.mecHost1.upf_mec.pppIf.queue queueBitLength:vector ETV
attr autoWarmupFilter false
attr interpolationmode sample-hold
attr recordingmode vector
attr source "warmup(atomic(constant0(packetPushEnded) + sum(packetLength(packetPushStarted)) - sum(packetLength(packetPulled)) - sum(packetLength(packetRemoved)) - sum(packetLength(packetDropped))))"
attr title "queue bit length"
attr unit b
vector 221 ExtUeAppMecAppExample.mecHost1.virtualisationInfrastructure.pppIf[0].ppp rxPkOk:vector(packetBytes) ETV
attr interpolationmode none
attr recordingmode vector(packetBytes)
attr source rxPkOk
attr title "packets received OK, packetBytes"
vector 222 ExtUeAppMecAppExample.mecHost1.virtualisationInfrastructure.pppIf[0].ppp passedUpPk:vector(packetBytes) ETV
attr interpolationmode none
attr recordingmode vector(packetBytes)
attr source packetSentToUpper
attr title "packets passed to higher layer, packetBytes"
vector 223 ExtUeAppMecAppExample.mecHost1.virtualisationInfrastructure.ipv4.arp arpRequestSent:vector(packetBytes) ETV
attr recordingmode vector(packetBytes)
attr source arpRequestSent
attr title "ARP request sent, packetBytes"
vector 224 ExtUeAppMecAppExample.mecHost1.virtualisationInfrastructure.encap encapPk:vector(packetBytes) ETV
attr interpolationmode none
attr recordingmode vector(packetBytes)
attr source encapPk
attr title "packets encapsulated, packetBytes"
vector 225 ExtUeAppMecAppExample.mecHost1.virtualisationInfrastructure.extEth[0].socket packetReceivedFromUpper:vector(packetBytes) ETV
attr interpolationmode none
attr recordingmode vector(packetBytes)
attr source packetReceivedFromUpper
attr title "packets received from higher layer, packetBytes"
vector 226 ExtUeAppMecAppExample.mecHost1.virtualisationInfrastructure.extEth[0].socket packetSent:vector(packetBytes) ETV
attr interpolationmode none
attr recordingmode vector(packetBytes)
attr source packetSent
attr title "packets sent, packetBytes"
vector 227 ExtUeAppMecAppExample.mecHost1.virtualisationInfrastructure.extEth[0].socket packetReceived:vector(packetBytes) ETV
attr interpolationmode none
attr recordingmode vector(packetBytes)
attr source packetReceived
attr title "packets received, packetBytes"
vector 228 ExtUeAppMecAppExample.mecHost1.virtualisationInfrastructure.extEth[0].socket packetSentFromUpper:vector(packetBytes) ETV
attr interpolationmode none
attr recordingmode vector(packetBytes)
attr source packetSentToUpper
attr title "packets sent to higher layer, packetBytes"
vector 229 ExtUeAppMecAppExample.mecHost1.virtualisationInfrastructure.encap decapPk:vector(packetBytes) ETV
attr interpolationmode none
attr recordingmode vector(packetBytes)
attr source decapPk
attr title "packets decapsulated, packetBytes"
vector 230 ExtUeAppMecAppExample.mecHost1.virtualisationInfrastructure.ipv4.arp arpReplySent:vector(packetBytes) ETV
attr recordingmode vector(packetBytes)
attr source arpReplySent
attr title "ARP replies sent, packetBytes"
vector 231 ExtUeAppMecAppExample.mecHost1.virtualisationInfrastructure.tcp.conn-6 rcvSeq:vector ETV
attr interpolationmode sample-hold
attr recordingmode vector
vector 232 ExtUeAppMecAppExample.mecHost1.virtualisationInfrastructure.tcp.conn-6 rcvAck:vector ETV
attr interpolationmode sample-hold
attr recordingmode vector
vector 233 ExtUeAppMecAppExample.mecHost1.virtualisationInfrastructure.tcp.conn-6 tcpRcvPayloadBytes:vector ETV
attr interpolationmode sample-hold
attr recordingmode vector
vector 234 ExtUeAppMecAppExample.mecHost1.virtualisationInfrastructure.tcp.conn-27 rcvAdv:vector ETV
attr interpolationmode sample-hold
attr recordingmode vector
vector 235 ExtUeAppMecAppExample.mecHost1.virtualisationInfrastructure.tcp.conn-27 sndWnd:vector ETV
attr interpolationmode sample-hold
attr recordingmode vector
vector 236 ExtUeAppMecAppExample.mecHost1.virtualisationInfrastructure.tcp.conn-27 tcpRcvQueueBytes:vector ETV
attr interpolationmode sample-hold
attr recordingmode vector
vector 237 ExtUeAppMecAppExample.mecHost1.virtualisationInfrastructure.tcp.conn-27 rcvWnd:vector ETV
attr interpolationmode sample-hold
attr recordingmode vector
vector 238 ExtUeAppMecAppExample.mecHost1.virtualisationInfrastructure.tcp.conn-27 sndAck:vector ETV
attr interpolationmode sample-hold
attr recordingmode vector
vector 239 ExtUeAppMecAppExample.mecHost1.virtualisationInfrastructure.tcp.conn-27 rcvSeq:vector ETV
attr interpolationmode sample-hold
attr recordingmode vector
vector 240 ExtUeAppMecAppExample.mecHost1.virtualisationInfrastructure.tcp.conn-27 rcvAck:vector ETV
attr interpolationmode sample-hold
attr recordingmode vector
vector 241 ExtUeAppMecAppExample.mecHost1.virtualisationInfrastructure.tcp.conn-27 tcpRcvPayloadBytes:vector ETV
attr interpolationmode sample-hold
attr recordingmode vector
vector 242 ExtUeAppMecAppExample.mecHost1.virtualisationInfrastructure.tcp.conn-27 unacked:vector ETV
attr interpolationmode sample-hold
attr recordingmode vector
vector 243 ExtUeAppMecAppExample.mecHost1.virtualisationInfrastructure.tcp.conn-27 dupAcks:vector ETV
attr interpolationmode sample-hold
attr recordingmode vector
vector 244 ExtUeAppMecAppExample.mecHost1.mecPlatform.mecService[0] responseTimeStat:vector ETV
attr recordingmode vector
attr source responseTime
attr title "Response time of foreground requests"
vector 245 ExtUeAppMecAppExample.mecHost1.virtualisationInfrastructure.tcp.conn-27 sndNxt:vector ETV
attr interpolationmode sample-hold
attr recordingmode vector
vector 246 ExtUeAppMecAppExample.mecHost1.virtualisationInfrastructure.tcp.conn-27 rtt:vector ETV
attr interpolationmode sample-hold
attr recordingmode vector
vector 247 ExtUeAppMecAppExample.mecHost1.virtualisationInfrastructure.tcp.conn-27 srtt:vector ETV
attr interpolationmode sample-hold
attr recordingmode vector
vector 248 ExtUeAppMecAppExample.mecHost1.virtualisationInfrastructure.tcp.conn-27 rttvar:vector ETV
attr interpolationmode sample-hold
attr recordingmode vector
vector 249 ExtUeAppMecAppExample.mecHost1.virtualisationInfrastructure.tcp.conn-27 rto:vector ETV
attr interpolationmode sample-hold
attr recordingmode vector
vector 250 ExtUeAppMecAppExample.mecHost1.virtualisationInfrastructure.tcp.conn-27 cwnd:vector ETV
attr interpolationmode sample-hold
attr recordingmode vector
vector 251 ExtUeAppMecAppExample.mecHost1.virtualisationInfrastructure.tcp.conn-27 ssthresh:vector ETV
attr interpolationmode sample-hold
attr recordingmode vector
vector 252 ExtUeAppMecAppExample.mecHost1.virtualisationInfrastructure.pppIf[0].queue incomingPacketLengths:vector ETV
attr interpolationmode none
attr recordingmode vector
attr source packetLength(packetPushStarted)
attr title "incoming packet lengths"
attr unit b
vector 253 ExtUeAppMecAppExample.mecHost1.virtualisationInfrastructure.pppIf[0].queue incomingDataRate:vector ETV
attr interpolationmode linear
attr recordingmode vector
attr source throughput(packetPushStarted)
attr title "incoming datarate"
attr unit bps
vector 254 ExtUeAppMecAppExample.mecHost1.virtualisationInfrastructure.pppIf[0].queue queueingTime:vector ETV
attr interpolationmode none
attr recordingmode vector
attr source queueingTime(packetPulled)
attr title "queueing times"
attr unit s
vector 255 ExtUeAppMecAppExample.mecHost1.virtualisationInfrastructure.pppIf[0].queue outgoingPacketLengths:vector ETV
attr interpolationmode none
attr recordingmode vector
attr source packetLength(packetPulled)
attr title "outgoing packet lengths"
attr unit b
vector 256 ExtUeAppMecAppExample.mecHost1.virtualisationInfrastructure.pppIf[0].queue outgoingDataRate:vector ETV
attr interpolationmode linear
attr recordingmode vector
attr source throughput(packetPulled)
attr title "outgoing datarate"
attr unit bps
vector 257 ExtUeAppMecAppExample.mecHost1.virtualisationInfrastructure.pppIf[0].ppp txPk:vector(packetBytes) ETV
attr interpolationmode none
attr recordingmode vector(packetBytes)
attr source packetSentToLower
attr title "packets transmitted, packetBytes"
vector 258 ExtUeAppMecAppExample.mecHost1.virtualisationInfrastructure.pppIf[0].queue queueLength:vector ETV
attr autoWarmupFilter false
attr interpolationmode sample-hold
attr recordingmode vector
attr source "warmup(atomic(constant0(packetPushEnded) + count(packetPushStarted) - count(packetPulled) - count(packetRemoved) - count(packetDropped)))"
attr title "queue length"
attr unit pk
vector 259 ExtUeAppMecAppExample.mecHost1.virtualisationInfrastructure.pppIf[0].queue queueBitLength:vector ETV
attr autoWarmupFilter false
attr interpolationmode sample-hold
attr recordingmode vector
attr source "warmup(atomic(constant0(packetPushEnded) + sum(packetLength(packetPushStarted)) - sum(packetLength(packetPulled)) - sum(packetLength(packetRemoved)) - sum(packetLength(packetDropped))))"
attr title "queue bit length"
attr unit b
vector 260 ExtUeAppMecAppExample.mecHost1.upf_mec.pppIf.ppp rxPkOk:vector(packetBytes) ETV
attr interpolationmode none
attr recordingmode vector(packetBytes)
attr source rxPkOk
attr title "packets received OK, packetBytes"
vector 261 ExtUeAppMecAppExample.mecHost1.upf_mec.pppIf.ppp passedUpPk:vector(packetBytes) ETV
attr interpolationmode none
attr recordingmode vector(packetBytes)
attr source packetSentToUpper
attr title "packets passed to higher layer, packetBytes"
vector 262 ExtUeAppMecAppExample.mecHost1.upf_mec.udp packetSent:vector(packetBytes) ETV
attr interpolationmode none
attr recordingmode vector(packetBytes)
attr source packetSent
attr title "packets sent, packetBytes"
vector 263 ExtUeAppMecAppExample.mecHost1.upf_mec.ppp[0].queue incomingPacketLengths:vector ETV
attr interpolationmode none
attr recordingmode vector
attr source packetLength(packetPushStarted)
attr title "incoming packet lengths"
attr unit b
vector 264 ExtUeAppMecAppExample.mecHost1.upf_mec.ppp[0].queue incomingDataRate:vector ETV
attr interpolationmode linear
attr recordingmode vector
attr source throughput(packetPushStarted)
attr title "incoming datarate"
attr unit bps
vector 265 ExtUeAppMecAppExample.mecHost1.upf_mec.ppp[0].queue queueingTime:vector ETV
attr interpolationmode none
attr recordingmode vector
attr source queueingTime(packetPulled)
attr title "queueing times"
attr unit s
vector 266 ExtUeAppMecAppExample.mecHost1.upf_mec.ppp[0].queue outgoingPacketLengths:vector ETV
attr interpolationmode none
attr recordingmode vector
attr source packetLength(packetPulled)
attr title "outgoing packet lengths"
attr unit b
vector 267 ExtUeAppMecAppExample.mecHost1.upf_mec.ppp[0].queue outgoingDataRate:vector ETV
attr interpolationmode linear
attr recordingmode vector
attr source throughput(packetPulled)
attr title "outgoing datarate"
attr unit bps
vector 268 ExtUeAppMecAppExample.mecHost1.upf_mec.ppp[0].ppp txPk:vector(packetBytes) ETV
attr interpolationmode none
attr recordingmode vector(packetBytes)
attr source packetSentToLower
attr title "packets transmitted, packetBytes"
vector 269 ExtUeAppMecAppExample.mecHost1.upf_mec.ppp[0].queue queueLength:vector ETV
attr autoWarmupFilter false
attr interpolationmode sample-hold
attr recordingmode vector
attr source "warmup(atomic(constant0(packetPushEnded) + count(packetPushStarted) - count(packetPulled) - count(packetRemoved) - count(packetDropped)))"
attr title "queue length"
attr unit pk
vector 270 ExtUeAppMecAppExample.mecHost1.upf_mec.ppp[0].queue queueBitLength:vector ETV
attr autoWarmupFilter false
attr interpolationmode sample-hold
attr recordingmode vector
attr source "warmup(atomic(constant0(packetPushEnded) + sum(packetLength(packetPushStarted)) - sum(packetLength(packetPulled)) - sum(packetLength(packetRemoved)) - sum(packetLength(packetDropped))))"
attr title "queue bit length"
attr unit b
vector 271 ExtUeAppMecAppExample.iUpf.ppp[2].ppp rxPkOk:vector(packetBytes) ETV
attr interpolationmode none
attr recordingmode vector(packetBytes)
attr source rxPkOk
attr title "packets received OK, packetBytes"
vector 272 ExtUeAppMecAppExample.iUpf.ppp[2].ppp passedUpPk:vector(packetBytes) ETV
attr interpolationmode none
attr recordingmode vector(packetBytes)
attr source packetSentToUpper
attr title "packets passed to higher layer, packetBytes"
43	21	0.001	0
43	26	0.002	0
43	35	0.003	1
43	42	0.004	0
43	48	0.005	0
43	58	0.006	0
43	64	0.007	0
43	68	0.008	0
43	72	0.009	0
43	123	0.01	0
43	134	0.011	0
43	140	0.012	0
43	144	0.013	0
43	148	0.014	0
43	166	0.015	0
43	173	0.016	0
43	180	0.017	1
43	187	0.018	0
43	193	0.019	0
43	203	0.02	0
43	209	0.021	0
43	213	0.022	0
43	217	0.023	0
43	248	0.024	0
43	254	0.025	0
43	258	0.026	0
43	262	0.027	0
43	266	0.028	0
43	270	0.029	0
43	274	0.03	0
43	278	0.031	0
43	282	0.032	0
43	286	0.033	0
43	290	0.034	0
43	294	0.035	0
43	298	0.036	0
43	302	0.037	0
43	306	0.038	0
43	310	0.039	0
43	315	0.04	0
43	320	0.041	0
43	324	0.042	0
43	330	0.043	0
43	334	0.044	0
43	338	0.045	0
43	342	0.046	0
43	346	0.047	0
43	350	0.048	0
43	354	0.049	0
43	360	0.05	0
43	364	0.051	0
43	368	0.052	0
43	372	0.053	0
43	376	0.054	0
43	380	0.055	0
43	384	0.056	0
43	388	0.057	0
43	392	0.058	0
43	396	0.059	0
43	400	0.06	0
43	404	0.061	0
43	408	0.062	0
43	412	0.063	0
43	416	0.064	0
43	420	0.065	0
43	424	0.066	0
43	428	0.067	0
43	432	0.068	0
43	436	0.069	0
43	440	0.07	0
43	444	0.071	0
43	448	0.072	0
43	452	0.073	0
43	456	0.074	0
43	460	0.075	0
43	464	0.076	0
43	468	0.077	0
43	472	0.078	0
43	476	0.079	0
43	481	0.08	0
43	486	0.081	0
43	490	0.082	0
43	496	0.083	0
43	500	0.084	0
43	504	0.085	0
43	508	0.086	0
43	512	0.087	0
43	516	0.088	0
43	520	0.089	0
43	524	0.09	0
43	528	0.091	0
43	532	0.092	0
43	536	0.093	0
43	540	0.094	0
43	544	0.095	0
43	548	0.096	0
43	552	0.097	0
43	556	0.098	0
43	560	0.099	0
43	565	0.1	0
43	569	0.101	0
43	573	0.102	0
43	577	0.103	0
43	581	0.104	0
43	585	0.105	0
43	589	0.106	0
43	593	0.107	0
43	597	0.108	0
43	601	0.109	0
43	605	0.11	0
43	609	0.111	0
43	613	0.112	0
43	617	0.113	0
43	621	0.114	0
43	625	0.115	0
43	629	0.116	0
43	633	0.117	0
43	637	0.118	0
43	641	0.119	0
43	646	0.12	0
43	651	0.121	0
43	655	0.122	0
43	661	0.123	0
43	665	0.124	0
43	669	0.125	0
43	673	0.126	0
43	677	0.127	0
43	681	0.128	0
43	685	0.129	0
43	689	0.13	0
43	693	0.131	0
43	697	0.132	0
43	701	0.133	0
43	705	0.134	0
43	709	0.135	0
43	713	0.136	0
43	717	0.137	0
43	721	0.138	0
43	725	0.139	0
43	729	0.14	0
43	733	0.141	0
43	737	0.142	0
43	741	0.143	0
43	745	0.144	0
43	749	0.145	0
43	753	0.146	0
43	757	0.147	0
43	761	0.148	0
43	765	0.149	0
43	770	0.15	0
43	774	0.151	0
43	778	0.152	0
43	782	0.153	0
43	786	0.154	0
43	790	0.155	0
43	794	0.156	0
43	798	0.157	0
43	802	0.158	0
43	806	0.159	0
43	811	0.16	0
43	816	0.161	0
43	820	0.162	0
43	826	0.163	0
43	830	0.164	0
43	834	0.165	0
43	838	0.166	0
43	842	0.167	0
43	846	0.168	0
43	850	0.169	0
43	854	0.17	0
43	858	0.171	0
43	862	0.172	0
43	866	0.173	0
43	870	0.174	0
43	874	0.175	0
43	878	0.176	0
43	882	0.177	0
43	886	0.178	0
43	890	0.179	0
43	894	0.18	0
43	898	0.181	0
43	902	0.182	0
43	906	0.183	0
43	910	0.184	0
43	914	0.185	0
43	918	0.186	0
43	922	0.187	0
43	926	0.188	0
43	930	0.189	0
43	934	0.19	0
43	938	0.191	0
43	942	0.192	0
43	946	0.193	0
43	950	0.194	0
43	954	0.195	0
43	958	0.196	0
43	962	0.197	0
43	966	0.198	0
43	970	0.199	0
43	976	0.2	0
43	981	0.201	0
43	985	0.202	0
43	991	0.203	0
43	995	0.204	0
43	999	0.205	0
43	1003	0.206	0
43	1007	0.207	0
43	1011	0.208	0
43	1015	0.209	0
43	1019	0.21	0
43	1023	0.211	0
43	1027	0.212	0
43	1031	0.213	0
43	1035	0.214	0
43	1039	0.215	0
43	1043	0.216	0
43	1047	0.217	0
43	1051	0.218	0
43	1055	0.219	0
43	1059	0.22	0
43	1063	0.221	0
43	1067	0.222	0
43	1071	0.223	0
43	1075	0.224	0
43	1079	0.225	0
43	1083	0.226	0
43	1087	0.227	0
43	1091	0.228	0
43	1095	0.229	0
43	1099	0.23	0
43	1103	0.231	0
43	1107	0.232	0
43	1111	0.233	0
43	1115	0.234	0
43	1119	0.235	0
43	1123	0.236	0
43	1127	0.237	0
43	1131	0.238	0
43	1135	0.239	0
43	1140	0.24	0
43	1145	0.241	0
43	1149	0.242	0
43	1155	0.243	0
43	1159	0.244	0
43	1163	0.245	0
43	1167	0.246	0
43	1171	0.247	0
43	1175	0.248	0
43	1179	0.249	0
43	1184	0.25	0
43	1188	0.251	0
43	1192	0.252	0
43	1196	0.253	0
43	1200	0.254	0
43	1204	0.255	0
43	1208	0.256	0
43	1212	0.257	0
43	1216	0.258	0
43	1220	0.259	0
43	1224	0.26	0
43	1228	0.261	0
43	1232	0.262	0
43	1236	0.263	0
43	1240	0.264	0
43	1244	0.265	0
43	1248	0.266	0
43	1252	0.267	0
43	1256	0.268	0
43	1260	0.269	0
43	1264	0.27	0
43	1268	0.271	0
43	1272	0.272	0
43	1276	0.273	0
43	1280	0.274	0
43	1284	0.275	0
43	1288	0.276	0
43	1292	0.277	0
43	1296	0.278	0
43	1300	0.279	0
43	1305	0.28	0
43	1310	0.281	0
43	1314	0.282	0
43	1320	0.283	0
43	1324	0.284	0
43	1328	0.285	0
43	1332	0.286	0
43	1336	0.287	0
43	1340	0.288	0
43	1344	0.289	0
43	1348	0.29	0
43	1352	0.291	0
43	1356	0.292	0
43	1360	0.293	0
43	1364	0.294	0
43	1368	0.295	0
43	1372	0.296	0
43	1376	0.297	0
43	1380	0.298	0
43	1384	0.299	0
43	1389	0.3	0
43	1393	0.301	0
43	1397	0.302	0
43	1401	0.303	0
43	1405	0.304	0
43	1409	0.305	0
43	1413	0.306	0
43	1417	0.307	0
43	1421	0.308	0
43	1425	0.309	0
43	1429	0.31	0
43	1433	0.311	0
43	1437	0.312	0
43	1441	0.313	0
43	1445	0.314	0
43	1449	0.315	0
43	1453	0.316	0
43	1457	0.317	0
43	1461	0.318	0
43	1465	0.319	0
43	1470	0.32	0
43	1475	0.321	0
43	1479	0.322	0
43	1485	0.323	0
43	1489	0.324	0
43	1493	0.325	0
43	1497	0.326	0
43	1501	0.327	0
43	1505	0.328	0
43	1509	0.329	0
43	1513	0.33	0
43	1517	0.331	0
43	1521	0.332	0
43	1525	0.333	0
43	1529	0.334	0
43	1533	0.335	0
43	1537	0.336	0
43	1541	0.337	0
43	1545	0.338	0
43	1549	0.339	0
43	1553	0.34	0
43	1557	0.341	0
43	1561	0.342	0
43	1565	0.343	0
43	1569	0.344	0
43	1573	0.345	0
43	1577	0.346	0
43	1581	0.347	0
43	1585	0.348	0
43	1589	0.349	0
43	1594	0.35	0
43	1598	0.351	0
43	1602	0.352	0
43	1606	0.353	0
43	1610	0.354	0
43	1614	0.355	0
43	1618	0.356	0
43	1622	0.357	0
43	1626	0.358	0
43	1630	0.359	0
43	1635	0.36	0
43	1640	0.361	0
43	1644	0.362	0
43	1650	0.363	0
43	1654	0.364	0
43	1658	0.365	0
43	1662	0.366	0
43	1666	0.367	0
43	1670	0.368	0
43	1674	0.369	0
43	1678	0.37	0
43	1682	0.371	0
43	1686	0.372	0
43	1690	0.373	0
43	1694	0.374	0
43	1698	0.375	0
43	1702	0.376	0
43	1706	0.377	0
43	1710	0.378	0
43	1714	0.379	0
43	1718	0.38	0
43	1722	0.381	0
43	1726	0.382	0
43	1730	0.383	0
43	1734	0.384	0
43	1738	0.385	0
43	1742	0.386	0
43	1746	0.387	0
43	1750	0.388	0
43	1754	0.389	0
43	1758	0.39	0
43	1762	0.391	0
43	1766	0.392	0
43	1770	0.393	0
43	1774	0.394	0
43	1778	0.395	0
43	1782	0.396	0
43	1786	0.397	0
43	1790	0.398	0
43	1794	0.399	0
43	1800	0.4	0
43	1805	0.401	0
43	1809	0.402	0
43	1815	0.403	0
43	1819	0.404	0
43	1823	0.405	0
43	1827	0.406	0
43	1831	0.407	0
43	1835	0.408	0
43	1839	0.409	0
43	1843	0.41	0
43	1847	0.411	0
43	1851	0.412	0
43	1855	0.413	0
43	1859	0.414	0
43	1863	0.415	0
43	1867	0.416	0
43	1871	0.417	0
43	1875	0.418	0
43	1879	0.419	0
43	1883	0.42	0
43	1887	0.421	0
43	1891	0.422	0
43	1895	0.423	0
43	1899	0.424	0
43	1903	0.425	0
43	1907	0.426	0
43	1911	0.427	0
43	1915	0.428	0
43	1919	0.429	0
43	1923	0.43	0
43	1927	0.431	0
43	1931	0.432	0
43	1935	0.433	0
43	1939	0.434	0
43	1943	0.435	0
43	1947	0.436	0
43	1951	0.437	0
43	1955	0.438	0
43	1959	0.439	0
43	1964	0.44	0
43	1969	0.441	0
43	1973	0.442	0
43	1979	0.443	0
43	1983	0.444	0
43	1987	0.445	0
43	1991	0.446	0
43	1995	0.447	0
43	1999	0.448	0
43	2003	0.449	0
43	2008	0.45	0
43	2012	0.451	0
43	2016	0.452	0
43	2020	0.453	0
43	2024	0.454	0
43	2028	0.455	0
43	2032	0.456	0
43	2036	0.457	0
43	2040	0.458	0
43	2044	0.459	0
43	2048	0.46	0
43	2052	0.461	0
43	2056	0.462	0
43	2060	0.463	0
43	2064	0.464	0
43	2068	0.465	0
43	2072	0.466	0
43	2076	0.467	0
43	2080	0.468	0
43	2084	0.469	0
43	2088	0.47	0
43	2092	0.471	0
43	2096	0.472	0
43	2100	0.473	0
43	2104	0.474	0
43	2108	0.475	0
43	2112	0.476	0
43	2116	0.477	0
43	2120	0.478	0
43	2124	0.479	0
43	2129	0.48	0
43	2134	0.481	0
43	2138	0.482	0
43	2144	0.483	0
43	2148	0.484	0
43	2152	0.485	0
43	2156	0.486	0
43	2160	0.487	0
43	2164	0.488	0
43	2168	0.489	0
43	2172	0.49	0
43	2176	0.491	0
43	2180	0.492	0
43	2184	0.493	0
43	2188	0.494	0
43	2192	0.495	0
43	2196	0.496	0
43	2200	0.497	0
43	2204	0.498	0
43	2208	0.499	0
43	2213	0.5	0
43	2217	0.501	0
43	2221	0.502	0
43	2225	0.503	0
43	2229	0.504	0
43	2233	0.505	0
43	2237	0.506	0
43	2241	0.507	0
43	2245	0.508	0
43	2249	0.509	0
43	2253	0.51	0
43	2257	0.511	0
43	2261	0.512	0
43	2265	0.513	0
43	2269	0.514	0
43	2273	0.515	0
43	2277	0.516	0
43	2281	0.517	0
43	2285	0.518	0
43	2289	0.519	0
43	2294	0.52	0
43	2299	0.521	0
43	2303	0.522	0
43	2309	0.523	0
43	2313	0.524	0
43	2317	0.525	0
43	2321	0.526	0
43	2325	0.527	0
43	2329	0.528	0
43	2333	0.529	0
43	2337	0.53	0
43	2341	0.531	0
43	2345	0.532	0
43	2349	0.533	0
43	2353	0.534	0
43	2357	0.535	0
43	2361	0.536	0
43	2365	0.537	0
43	2369	0.538	0
43	2373	0.539	0
43	2377	0.54	0
43	2381	0.541	0
43	2385	0.542	0
43	2389	0.543	0
43	2393	0.544	0
43	2397	0.545	0
43	2401	0.546	0
43	2405	0.547	0
43	2409	0.548	0
43	2413	0.549	0
43	2418	0.55	0
43	2422	0.551	0
43	2426	0.552	0
43	2430	0.553	0
43	2434	0.554	0
43	2438	0.555	0
43	2442	0.556	0
43	2446	0.557	0
43	2450	0.558	0
43	2454	0.559	0
43	2459	0.56	0
43	2464	0.561	0
43	2468	0.562	0
43	2474	0.563	0
43	2478	0.564	0
43	2482	0.565	0
43	2486	0.566	0
43	2490	0.567	0
43	2494	0.568	0
43	2498	0.569	0
43	2502	0.57	0
43	2506	0.571	0
43	2510	0.572	0
43	2514	0.573	0
43	2518	0.574	0
43	2522	0.575	0
43	2526	0.576	0
43	2530	0.577	0
43	2534	0.578	0
43	2538	0.579	0
43	2542	0.58	0
43	2546	0.581	0
43	2550	0.582	0
43	2554	0.583	0
43	2558	0.584	0
43	2562	0.585	0
43	2566	0.586	0
43	2570	0.587	0
43	2574	0.588	0
43	2578	0.589	0
43	2582	0.59	0
43	2586	0.591	0
43	2590	0.592	0
43	2594	0.593	0
43	2598	0.594	0
43	2602	0.595	0
43	2606	0.596	0
43	2610	0.597	0
43	2614	0.598	0
43	2618	0.599	0
43	2624	0.6	0
43	2629	0.601	0
43	2633	0.602	0
43	2639	0.603	0
43	2643	0.604	0
43	2647	0.605	0
43	2651	0.606	0
43	2655	0.607	0
43	2659	0.608	0
43	2663	0.609	0
43	2667	0.61	0
43	2671	0.611	0
43	2675	0.612	0
43	2679	0.613	0
43	2683	0.614	0
43	2687	0.615	0
43	2691	0.616	0
43	2695	0.617	0
43	2699	0.618	0
43	2703	0.619	0
43	2707	0.62	0
43	2711	0.621	0
43	2715	0.622	0
43	2719	0.623	0
43	2723	0.624	0
43	2727	0.625	0
43	2731	0.626	0
43	2735	0.627	0
43	2739	0.628	0
43	2743	0.629	0
43	2747	0.63	0
43	2751	0.631	0
43	2755	0.632	0
43	2759	0.633	0
43	2763	0.634	0
43	2767	0.635	0
43	2771	0.636	0
43	2775	0.637	0
43	2779	0.638	0
43	2783	0.639	0
43	2788	0.64	0
43	2793	0.641	0
43	2797	0.642	0
43	2803	0.643	0
43	2807	0.644	0
43	2811	0.645	0
43	2815	0.646	0
43	2819	0.647	0
43	2823	0.648	0
43	2827	0.649	0
43	2832	0.65	0
43	2836	0.651	0
43	2840	0.652	0
43	2844	0.653	0
43	2848	0.654	0
43	2852	0.655	0
43	2856	0.656	0
43	2860	0.657	0
43	2864	0.658	0
43	2868	0.659	0
43	2872	0.66	0
43	2876	0.661	0
43	2880	0.662	0
43	2884	0.663	0
43	2888	0.664	0
43	2892	0.665	0
43	2896	0.666	0
43	2900	0.667	0
43	2904	0.668	0
43	2908	0.669	0
43	2912	0.67	0
43	2916	0.671	0
43	2920	0.672	0
43	2924	0.673	0
43	2928	0.674	0
43	2932	0.675	0
43	2936	0.676	0
43	2940	0.677	0
43	2944	0.678	0
43	2948	0.679	0
43	2953	0.68	0
43	2958	0.681	0
43	2962	0.682	0
43	2968	0.683	0
43	2972	0.684	0
43	2976	0.685	0
43	2980	0.686	0
43	2984	0.687	0
43	2988	0.688	0
43	2992	0.689	0
43	2996	0.69	0
43	3000	0.691	0
43	3004	0.692	0
43	3008	0.693	0
43	3012	0.694	0
43	3016	0.695	0
43	3020	0.696	0
43	3024	0.697	0
43	3028	0.698	0
43	3032	0.699	0
43	3037	0.7	0
43	3041	0.701	0
43	3045	0.702	0
43	3049	0.703	0
43	3053	0.704	0
43	3057	0.705	0
43	3061	0.706	0
43	3065	0.707	0
43	3069	0.708	0
43	3073	0.709	0
43	3077	0.71	0
43	3081	0.711	0
43	3085	0.712	0
43	3089	0.713	0
43	3093	0.714	0
43	3097	0.715	0
43	3101	0.716	0
43	3105	0.717	0
43	3109	0.718	0
43	3113	0.719	0
43	3118	0.72	0
43	3123	0.721	0
43	3127	0.722	0
43	3133	0.723	0
43	3137	0.724	0
43	3141	0.725	0
43	3145	0.726	0
43	3149	0.727	0
43	3153	0.728	0
43	3157	0.729	0
43	3161	0.73	0
43	3165	0.731	0
43	3169	0.732	0
43	3173	0.733	0
43	3177	0.734	0
43	3181	0.735	0
43	3185	0.736	0
43	3189	0.737	0
43	3193	0.738	0
43	3197	0.739	0
43	3201	0.74	0
43	3205	0.741	0
43	3209	0.742	0
43	3213	0.743	0
43	3217	0.744	0
43	3221	0.745	0
43	3225	0.746	0
43	3229	0.747	0
43	3233	0.748	0
43	3237	0.749	0
43	3242	0.75	0
43	3246	0.751	0
43	3250	0.752	0
43	3254	0.753	0
43	3258	0.754	0
43	3262	0.755	0
43	3266	0.756	0
43	3270	0.757	0
43	3274	0.758	0
43	3278	0.759	0
43	3283	0.76	0
43	3288	0.761	0
43	3292	0.762	0
43	3298	0.763	0
43	3302	0.764	0
43	3306	0.765	0
43	3310	0.766	0
43	3314	0.767	0
43	3318	0.768	0
43	3322	0.769	0
43	3326	0.77	0
43	3330	0.771	0
43	3334	0.772	0
43	3338	0.773	0
43	3342	0.774	0
43	3346	0.775	0
43	3350	0.776	0
43	3354	0.777	0
43	3358	0.778	0
43	3362	0.779	0
43	3366	0.78	0
43	3370	0.781	0
43	3374	0.782	0
43	3378	0.783	0
43	3382	0.784	0
43	3386	0.785	0
43	3390	0.786	0
43	3394	0.787	0
43	3398	0.788	0
43	3402	0.789	0
43	3406	0.79	0
43	3410	0.791	0
43	3414	0.792	0
43	3418	0.793	0
43	3422	0.794	0
43	3426	0.795	0
43	3430	0.796	0
43	3434	0.797	0
43	3438	0.798	0
43	3442	0.799	0
43	3448	0.8	0
43	3453	0.801	0
43	3457	0.802	0
43	3463	0.803	0
43	3467	0.804	0
43	3471	0.805	0
43	3475	0.806	0
43	3479	0.807	0
43	3483	0.808	0
43	3487	0.809	0
43	3491	0.81	0
43	3495	0.811	0
43	3499	0.812	0
43	3503	0.813	0
43	3507	0.814	0
43	3511	0.815	0
43	3515	0.816	0
43	3519	0.817	0
43	3523	0.818	0
43	3527	0.819	0
43	3531	0.82	0
43	3535	0.821	0
43	3539	0.822	0
43	3543	0.823	0
43	3547	0.824	0
43	3551	0.825	0
43	3555	0.826	0
43	3559	0.827	0
43	3563	0.828	0
43	3567	0.829	0
43	3571	0.83	0
43	3575	0.831	0
43	3579	0.832	0
43	3583	0.833	0
43	3587	0.834	0
43	3591	0.835	0
43	3595	0.836	0
43	3599	0.837	0
43	3603	0.838	0
43	3607	0.839	0
43	3612	0.84	0
43	3617	0.841	0
43	3621	0.842	0
43	3627	0.843	0
43	3631	0.844	0
43	3635	0.845	0
43	3639	0.846	0
43	3643	0.847	0
43	3647	0.848	0
43	3651	0.849	0
43	3656	0.85	0
43	3660	0.851	0
43	3664	0.852	0
43	3668	0.853	0
43	3672	0.854	0
43	3676	0.855	0
43	3680	0.856	0
43	3684	0.857	0
43	3688	0.858	0
43	3692	0.859	0
43	3696	0.86	0
43	3700	0.861	0
43	3704	0.862	0
43	3708	0.863	0
43	3712	0.864	0
43	3716	0.865	0
43	3720	0.866	0
43	3724	0.867	0
43	3728	0.868	0
43	3732	0.869	0
43	3736	0.87	0
43	3740	0.871	0
43	3744	0.872	0
43	3748	0.873	0
43	3752	0.874	0
43	3756	0.875	0
43	3760	0.876	0
43	3764	0.877	0
43	3768	0.878	0
43	3772	0.879	0
43	3777	0.88	0
43	3782	0.881	0
43	3786	0.882	0
43	3792	0.883	0
43	3796	0.884	0
43	3800	0.885	0
43	3804	0.886	0
43	3808	0.887	0
43	3812	0.888	0
43	3816	0.889	0
43	3820	0.89	0
43	3824	0.891	0
43	3828	0.892	0
43	3832	0.893	0
43	3836	0.894	0
43	3840	0.895	0
43	3844	0.896	0
43	3848	0.897	0
43	3852	0.898	0
43	3856	0.899	0
43	3861	0.9	0
43	3865	0.901	0
43	3869	0.902	0
43	3873	0.903	0
43	3877	0.904	0
43	3881	0.905	0
43	3885	0.906	0
43	3889	0.907	0
43	3893	0.908	0
43	3897	0.909	0
43	3901	0.91	0
43	3905	0.911	0
43	3909	0.912	0
43	3913	0.913	0
43	3917	0.914	0
43	3921	0.915	0
43	3925	0.916	0
43	3929	0.917	0
43	3933	0.918	0
43	3937	0.919	0
43	3942	0.92	0
43	3947	0.921	0
43	3951	0.922	0
43	3957	0.923	0
43	3961	0.924	0
43	3965	0.925	0
43	3969	0.926	0
43	3973	0.927	0
43	3977	0.928	0
43	3981	0.929	0
43	3985	0.93	0
43	3989	0.931	0
43	3993	0.932	0
43	3997	0.933	0
43	4001	0.934	0
43	4005	0.935	0
43	4009	0.936	0
43	4013	0.937	0
43	4017	0.938	0
43	4021	0.939	0
43	4025	0.94	0
43	4029	0.941	0
43	4033	0.942	0
43	4037	0.943	0
43	4041	0.944	0
43	4045	0.945	0
43	4049	0.946	0
43	4053	0.947	0
43	4057	0.948	0
43	4061	0.949	0
43	4066	0.95	0
43	4070	0.951	0
43	4074	0.952	0
43	4078	0.953	0
43	4082	0.954	0
43	4086	0.955	0
43	4090	0.956	0
43	4094	0.957	0
43	4098	0.958	0
43	4102	0.959	0
43	4107	0.96	0
43	4112	0.961	0
43	4116	0.962	0
43	4122	0.963	0
43	4126	0.964	0
43	4130	0.965	0
43	4134	0.966	0
43	4138	0.967	0
43	4142	0.968	0
43	4146	0.969	0
43	4150	0.97	0
43	4154	0.971	0
43	4158	0.972	0
43	4162	0.973	0
43	4166	0.974	0
43	4170	0.975	0
43	4174	0.976	0
43	4178	0.977	0
43	4182	0.978	0
43	4186	0.979	0
43	4190	0.98	0
43	4194	0.981	0
43	4198	0.982	0
43	4202	0.983	0
43	4206	0.984	0
43	4210	0.985	0
43	4214	0.986	0
43	4218	0.987	0
43	4222	0.988	0
43	4226	0.989	0
43	4230	0.99	0
43	4234	0.991	0
43	4238	0.992	0
43	4242	0.993	0
43	4246	0.994	0
43	4250	0.995	0
43	4254	0.996	0
43	4258	0.997	0
43	4262	0.998	0
43	4266	0.999	0
43	4272	1	0
43	4277	1.001	0
43	4281	1.002	0
43	4287	1.003	0
43	4291	1.004	0
43	4295	1.005	0
43	4299	1.006	0
43	4303	1.007	0
43	4307	1.008	0
43	4311	1.009	0
43	4315	1.01	0
43	4319	1.011	0
43	4323	1.012	0
43	4327	1.013	0
43	4331	1.014	0
43	4335	1.015	0
43	4339	1.016	0
43	4343	1.017	0
43	4347	1.018	0
43	4351	1.019	0
43	4355	1.02	0
43	4359	1.021	0
43	4363	1.022	0
43	4367	1.023	0
43	4371	1.024	0
43	4375	1.025	0
43	4379	1.026	0
43	4383	1.027	0
43	4387	1.028	0
[...]
274	166071	6.5	0
274	166071	6.6	0
274	166071	6.7	0
274	166071	6.8	0
274	166071	6.9	0
274	166071	7	0
274	166071	7.1	0
274	166071	7.2	0
274	166071	7.3	0
274	166071	7.4	0
274	166071	7.5	0
274	166071	7.6	0
274	166071	7.7	0
274	166071	7.8	0
274	166071	7.9	0
274	166071	8	0
274	166071	8.1	0
274	166071	8.2	0
274	166071	8.3	0
274	166071	8.4	0
274	166071	8.5	0
274	166071	8.6	0
274	166071	8.7	0
274	166071	8.8	0
274	166071	8.9	0
274	166071	9	0
274	166071	9.1	0
274	166071	9.2	0
274	166071	9.3	0
274	166071	9.4	0
274	166071	9.5	0
274	166071	9.6	0
274	166071	9.7	0
274	166071	9.8	0
274	166071	9.9	0
274	166071	10	0
274	166071	10.1	0
274	166071	10.2	0
274	166071	10.3	0
274	166071	10.4	0
274	166071	10.5	0
274	166071	10.6	0
274	166071	10.7	0
274	166071	10.8	0
274	166071	10.9	0
274	166071	11	0
274	166071	11.1	0
274	166071	11.2	0
274	166071	11.3	0
274	166071	11.4	0
274	166071	11.5	0
274	166071	11.6	0
274	166071	11.7	0
274	166071	11.8	0
274	166071	11.9	0
274	166071	12	0
274	166071	12.1	0
274	166071	12.2	0
274	166071	12.3	0
274	166071	12.4	0
274	166071	12.5	0
274	166071	12.6	0
274	166071	12.7	0
274	166071	12.8	0
274	166071	12.9	0
274	166071	13	0
274	166071	13.1	0
274	166071	13.2	0
274	166071	13.3	0
274	166071	13.4	0
274	166071	13.5	0
274	166071	13.6	0
274	166071	13.7	0
274	166071	13.8	0
274	166071	13.9	0
274	166071	14	0
274	166071	14.1	0
274	166071	14.2	0
274	166071	14.3	0
274	166071	14.4	0
274	166071	14.5	0
274	166071	14.6	0
274	166071	14.7	0
274	166071	14.8	0
274	166071	14.9	0
274	166071	15	0
274	166071	15.1	0
274	166071	15.2	0
274	166071	15.3	0
274	166071	15.4	0
274	166071	15.5	0
274	166071	15.6	0
274	166071	15.7	0
274	166071	15.8	0
274	166071	15.9	0
274	166071	16	0
274	166071	16.1	0
274	166071	16.2	0
274	166071	16.3	0
274	166071	16.4	0
274	166071	16.5	0
274	166071	16.6	0
274	166071	16.7	0
274	166071	16.8	0
274	166071	16.9	0
274	166071	17	0
274	166071	17.1	0
274	166071	17.2	0
274	166071	17.3	0
274	166071	17.4	0
274	166071	17.5	0
274	166071	17.6	0
274	166071	17.7	0
274	166071	17.8	0
274	166071	17.9	0
274	166071	18	0
274	166071	18.1	0
274	166071	18.2	0
274	166071	18.3	0
274	166071	18.4	0
274	166071	18.5	0
274	166071	18.6	0
274	166071	18.7	0
274	166071	18.8	0
274	166071	18.9	0
274	166071	19	0
274	166071	19.1	0
274	166071	19.2	0
274	166071	19.3	0
274	166071	19.4	0
274	166071	19.5	0
274	166071	19.6	0
274	166071	19.7	0
274	166071	19.8	0
274	166071	19.9	0
274	166071	20	0
274	166071	20.1	0
274	166071	20.2	0
274	166071	20.3	0
274	166071	20.4	0
274	166071	20.5	0
274	166071	20.6	0
274	166071	20.7	0
274	166071	20.8	0
274	166071	20.9	0
274	166071	21	0
274	166071	21.1	0
274	166071	21.2	0
274	166071	21.3	0
274	166071	21.4	0
274	166071	21.5	0
274	166071	21.6	0
274	166071	21.7	0
274	166071	21.8	0
274	166071	21.9	0
274	166071	22	0
274	166071	22.1	0
274	166071	22.2	0
274	166071	22.3	0
274	166071	22.4	0
274	166071	22.5	0
274	166071	22.6	0
274	166071	22.7	0
274	166071	22.8	0
274	166071	22.9	0
274	166071	23	0
274	166071	23.1	0
274	166071	23.2	0
274	166071	23.3	0
274	166071	23.4	0
274	166071	23.5	0
274	166071	23.6	0
274	166071	23.7	0
274	166071	23.8	0
274	166071	23.9	0
274	166071	24	0
274	166071	24.1	0
274	166071	24.2	0
274	166071	24.3	0
274	166071	24.4	0
274	166071	24.5	0
274	166071	24.6	0
274	166071	24.7	0
274	166071	24.8	0
274	166071	24.9	0
274	166071	25	0
274	166071	25.1	0
274	166071	25.2	0
274	166071	25.3	0
274	166071	25.4	0
274	166071	25.5	0
274	166071	25.6	0
274	166071	25.7	0
274	166071	25.8	0
274	166071	25.9	0
274	166071	26	0
274	166071	26.1	0
274	166071	26.2	0
274	166071	26.3	0
274	166071	26.4	0
274	166071	26.5	0
274	166071	26.6	0
274	166071	26.7	0
274	166071	26.8	0
274	166071	26.9	0
274	166071	27	0
274	166071	27.1	0
274	166071	27.2	0
274	166071	27.3	0
274	166071	27.4	0
274	166071	27.5	0
274	166071	27.6	0
274	166071	27.7	0
274	166071	27.8	0
274	166071	27.9	0
274	166071	28	0
274	166071	28.1	0
274	166071	28.2	0
274	166071	28.3	0
274	166071	28.4	0
274	166071	28.5	0
274	166071	28.6	0
274	166071	28.7	0
274	166071	28.8	0
274	166071	28.9	0
274	166071	29	0
274	166071	29.1	0
274	166071	29.2	0
274	166071	29.3	0
274	166071	29.4	0
274	166071	29.5	0
274	166071	29.6	0
274	166071	29.7	0
274	166071	29.8	0
274	166071	29.9	0
274	166071	30	0
274	166071	30.1	0
274	166071	30.2	0
274	166071	30.3	0
274	166071	30.4	0
274	166071	30.5	0
274	166071	30.6	0
274	166071	30.7	0
274	166071	30.8	0
274	166071	30.9	0
274	166071	31	0
274	166071	31.1	0
274	166071	31.2	0
274	166071	31.3	0
274	166071	31.4	0
274	166071	31.5	0
274	166071	31.6	0
274	166071	31.7	0
274	166071	31.8	0
274	166071	31.9	0
274	166071	32	0
274	166071	32.1	0
274	166071	32.2	0
274	166071	32.3	0
274	166071	32.4	0
274	166071	32.5	0
274	166071	32.6	0
274	166071	32.7	0
274	166071	32.8	0
274	166071	32.9	0
274	166071	33	0
274	166071	33.1	0
274	166071	33.2	0
274	166071	33.3	0
274	166071	33.4	0
274	166071	33.5	0
274	166071	33.6	0
274	166071	33.7	0
274	166071	33.8	0
274	166071	33.9	0
274	166071	34	0
274	166071	34.1	0
274	166071	34.2	0
274	166071	34.3	0
274	166071	34.4	0
274	166071	34.5	0
274	166071	34.6	0
274	166071	34.7	0
274	166071	34.8	0
274	166071	34.9	0
274	166071	35	0
274	166071	35.1	0
274	166071	35.2	0
274	166071	35.3	0
274	166071	35.4	0
274	166071	35.5	0
274	166071	35.6	0
274	166071	35.7	0
274	166071	35.8	0
274	166071	35.9	0
274	166071	36	0
274	166071	36.1	0
274	166071	36.2	0
274	166071	36.3	0
274	166071	36.4	0
274	166071	36.5	0
274	166071	36.6	0
274	166071	36.7	0
274	166071	36.8	0
274	166071	36.9	0
274	166071	37	0
274	166071	37.1	0
274	166071	37.2	0
274	166071	37.3	0
274	166071	37.4	0
274	166071	37.5	0
274	166071	37.6	0
274	166071	37.7	0
274	166071	37.8	0
274	166071	37.9	0
274	166071	38	0
274	166071	38.1	0
274	166071	38.2	0
274	166071	38.3	0
274	166071	38.4	0
274	166071	38.5	0
274	166071	38.6	0
274	166071	38.7	0
274	166071	38.8	0
274	166071	38.9	0
274	166071	39	0
274	166071	39.1	0
274	166071	39.2	0
274	166071	39.3	0
274	166071	39.4	0
274	166071	39.5	0
274	166071	39.6	0
274	166071	39.7	0
274	166071	39.8	0
274	166071	39.9	0
274	166071	40	0
275	166071	0.1	0
275	166071	0.2	0
275	166071	0.3	0
275	166071	0.4	0
275	166071	0.5	0
275	166071	0.6	0
275	166071	0.7	0
275	166071	0.8	0
275	166071	0.9	0
275	166071	1	0
275	166071	1.1	0
275	166071	1.2	0
275	166071	1.3	0
275	166071	1.4	0
275	166071	1.5	0
275	166071	1.6	0
275	166071	1.7	0
275	166071	1.8	0
275	166071	1.9	0
275	166071	2	0
275	166071	2.1	0
275	166071	2.2	0
275	166071	2.3	0
275	166071	2.4	0
275	166071	2.5	0
275	166071	2.6	0
275	166071	2.7	0
275	166071	2.8	0
275	166071	2.9	0
275	166071	3	0
275	166071	3.1	0
275	166071	3.2	0
275	166071	3.3	0
275	166071	3.4	0
275	166071	3.5	0
275	166071	3.6	0
275	166071	3.7	0
275	166071	3.8	0
275	166071	3.9	0
275	166071	4	0
275	166071	4.1	0
275	166071	4.2	0
275	166071	4.3	0
275	166071	4.4	0
275	166071	4.5	0
275	166071	4.6	0
275	166071	4.7	0
275	166071	4.8	0
275	166071	4.9	0
275	166071	5	0
275	166071	5.1	0
275	166071	5.2	0
275	166071	5.3	0
275	166071	5.4	0
275	166071	5.5	0
275	166071	5.6	0
275	166071	5.7	0
275	166071	5.8	0
275	166071	5.9	0
275	166071	6	0
275	166071	6.1	0
275	166071	6.2	0
275	166071	6.3	0
275	166071	6.4	0
275	166071	6.5	0
275	166071	6.6	0
275	166071	6.7	0
275	166071	6.8	0
275	166071	6.9	0
275	166071	7	0
275	166071	7.1	0
275	166071	7.2	0
275	166071	7.3	0
275	166071	7.4	0
275	166071	7.5	0
275	166071	7.6	0
275	166071	7.7	0
275	166071	7.8	0
275	166071	7.9	0
275	166071	8	0
275	166071	8.1	0
275	166071	8.2	0
275	166071	8.3	0
275	166071	8.4	0
275	166071	8.5	0
275	166071	8.6	0
275	166071	8.7	0
275	166071	8.8	0
275	166071	8.9	0
275	166071	9	0
275	166071	9.1	0
275	166071	9.2	0
275	166071	9.3	0
275	166071	9.4	0
275	166071	9.5	0
275	166071	9.6	0
275	166071	9.7	0
275	166071	9.8	0
275	166071	9.9	0
275	166071	10	0
275	166071	10.1	0
275	166071	10.2	0
275	166071	10.3	0
275	166071	10.4	0
275	166071	10.5	0
275	166071	10.6	0
275	166071	10.7	0
275	166071	10.8	0
275	166071	10.9	0
275	166071	11	0
275	166071	11.1	0
275	166071	11.2	0
275	166071	11.3	0
275	166071	11.4	0
275	166071	11.5	0
275	166071	11.6	0
275	166071	11.7	0
275	166071	11.8	0
275	166071	11.9	0
275	166071	12	0
275	166071	12.1	0
275	166071	12.2	0
275	166071	12.3	0
275	166071	12.4	0
275	166071	12.5	0
275	166071	12.6	0
275	166071	12.7	0
275	166071	12.8	0
275	166071	12.9	0
275	166071	13	0
275	166071	13.1	0
275	166071	13.2	0
275	166071	13.3	0
275	166071	13.4	0
275	166071	13.5	0
275	166071	13.6	0
275	166071	13.7	0
275	166071	13.8	0
275	166071	13.9	0
275	166071	14	0
275	166071	14.1	0
275	166071	14.2	0
275	166071	14.3	0
275	166071	14.4	0
275	166071	14.5	0
275	166071	14.6	0
275	166071	14.7	0
275	166071	14.8	0
275	166071	14.9	0
275	166071	15	0
275	166071	15.1	0
275	166071	15.2	0
275	166071	15.3	0
275	166071	15.4	0
275	166071	15.5	0
275	166071	15.6	0
275	166071	15.7	0
275	166071	15.8	0
275	166071	15.9	0
275	166071	16	0
275	166071	16.1	0
275	166071	16.2	0
275	166071	16.3	0
275	166071	16.4	0
275	166071	16.5	0
275	166071	16.6	0
275	166071	16.7	0
275	166071	16.8	0
275	166071	16.9	0
275	166071	17	0
275	166071	17.1	0
275	166071	17.2	0
275	166071	17.3	0
275	166071	17.4	0
275	166071	17.5	0
275	166071	17.6	0
275	166071	17.7	0
275	166071	17.8	0
275	166071	17.9	0
275	166071	18	0
275	166071	18.1	0
275	166071	18.2	0
275	166071	18.3	0
275	166071	18.4	0
275	166071	18.5	0
275	166071	18.6	0
275	166071	18.7	0
275	166071	18.8	0
275	166071	18.9	0
275	166071	19	0
275	166071	19.1	0
275	166071	19.2	0
275	166071	19.3	0
275	166071	19.4	0
275	166071	19.5	0
275	166071	19.6	0
275	166071	19.7	0
275	166071	19.8	0
275	166071	19.9	0
275	166071	20	0
275	166071	20.1	0
275	166071	20.2	0
275	166071	20.3	0
275	166071	20.4	0
275	166071	20.5	0
275	166071	20.6	0
275	166071	20.7	0
275	166071	20.8	0
275	166071	20.9	0
275	166071	21	0
275	166071	21.1	0
275	166071	21.2	0
275	166071	21.3	0
275	166071	21.4	0
275	166071	21.5	0
275	166071	21.6	0
275	166071	21.7	0
275	166071	21.8	0
275	166071	21.9	0
275	166071	22	0
275	166071	22.1	0
275	166071	22.2	0
275	166071	22.3	0
275	166071	22.4	0
275	166071	22.5	0
275	166071	22.6	0
275	166071	22.7	0
275	166071	22.8	0
275	166071	22.9	0
275	166071	23	0
275	166071	23.1	0
275	166071	23.2	0
275	166071	23.3	0
275	166071	23.4	0
275	166071	23.5	0
275	166071	23.6	0
275	166071	23.7	0
275	166071	23.8	0
275	166071	23.9	0
275	166071	24	0
275	166071	24.1	0
275	166071	24.2	0
275	166071	24.3	0
275	166071	24.4	0
275	166071	24.5	0
275	166071	24.6	0
275	166071	24.7	0
275	166071	24.8	0
275	166071	24.9	0
275	166071	25	0
275	166071	25.1	0
275	166071	25.2	0
275	166071	25.3	0
275	166071	25.4	0
275	166071	25.5	0
275	166071	25.6	0
275	166071	25.7	0
275	166071	25.8	0
275	166071	25.9	0
275	166071	26	0
275	166071	26.1	0
275	166071	26.2	0
275	166071	26.3	0
275	166071	26.4	0
275	166071	26.5	0
275	166071	26.6	0
275	166071	26.7	0
275	166071	26.8	0
275	166071	26.9	0
275	166071	27	0
275	166071	27.1	0
275	166071	27.2	0
275	166071	27.3	0
275	166071	27.4	0
275	166071	27.5	0
275	166071	27.6	0
275	166071	27.7	0
275	166071	27.8	0
275	166071	27.9	0
275	166071	28	0
275	166071	28.1	0
275	166071	28.2	0
275	166071	28.3	0
275	166071	28.4	0
275	166071	28.5	0
275	166071	28.6	0
275	166071	28.7	0
275	166071	28.8	0
275	166071	28.9	0
275	166071	29	0
275	166071	29.1	0
275	166071	29.2	0
275	166071	29.3	0
275	166071	29.4	0
275	166071	29.5	0
275	166071	29.6	0
275	166071	29.7	0
275	166071	29.8	0
275	166071	29.9	0
275	166071	30	0
275	166071	30.1	0
275	166071	30.2	0
275	166071	30.3	0
275	166071	30.4	0
275	166071	30.5	0
275	166071	30.6	0
275	166071	30.7	0
275	166071	30.8	0
275	166071	30.9	0
275	166071	31	0
275	166071	31.1	0
275	166071	31.2	0
275	166071	31.3	0
275	166071	31.4	0
275	166071	31.5	0
275	166071	31.6	0
275	166071	31.7	0
275	166071	31.8	0
275	166071	31.9	0
275	166071	32	0
275	166071	32.1	0
275	166071	32.2	0
275	166071	32.3	0
275	166071	32.4	0
275	166071	32.5	0
275	166071	32.6	0
275	166071	32.7	0
275	166071	32.8	0
275	166071	32.9	0
275	166071	33	0
275	166071	33.1	0
275	166071	33.2	0
275	166071	33.3	0
275	166071	33.4	0
275	166071	33.5	0
275	166071	33.6	0
275	166071	33.7	0
275	166071	33.8	0
275	166071	33.9	0
275	166071	34	0
275	166071	34.1	0
275	166071	34.2	0
275	166071	34.3	0
275	166071	34.4	0
275	166071	34.5	0
275	166071	34.6	0
275	166071	34.7	0
275	166071	34.8	0
275	166071	34.9	0
275	166071	35	0
275	166071	35.1	0
275	166071	35.2	0
275	166071	35.3	0
275	166071	35.4	0
275	166071	35.5	0
275	166071	35.6	0
275	166071	35.7	0
275	166071	35.8	0
275	166071	35.9	0
275	166071	36	0
275	166071	36.1	0
275	166071	36.2	0
275	166071	36.3	0
275	166071	36.4	0
275	166071	36.5	0
275	166071	36.6	0
275	166071	36.7	0
275	166071	36.8	0
275	166071	36.9	0
275	166071	37	0
275	166071	37.1	0
275	166071	37.2	0
275	166071	37.3	0
275	166071	37.4	0
275	166071	37.5	0
275	166071	37.6	0
275	166071	37.7	0
275	166071	37.8	0
275	166071	37.9	0
275	166071	38	0
275	166071	38.1	0
275	166071	38.2	0
275	166071	38.3	0
275	166071	38.4	0
275	166071	38.5	0
275	166071	38.6	0
275	166071	38.7	0
275	166071	38.8	0
275	166071	38.9	0
275	166071	39	0
275	166071	39.1	0
275	166071	39.2	0
275	166071	39.3	0
275	166071	39.4	0
275	166071	39.5	0
275	166071	39.6	0
275	166071	39.7	0
275	166071	39.8	0
275	166071	39.9	0
275	166071	40	0
276	166071	0.1	0
276	166071	0.2	0
276	166071	0.3	0
276	166071	0.4	0
276	166071	0.5	0
276	166071	0.6	0
276	166071	0.7	0
276	166071	0.8	0
276	166071	0.9	0
276	166071	1	0
276	166071	1.1	0
276	166071	1.2	0
276	166071	1.3	0
276	166071	1.4	0
276	166071	1.5	0
276	166071	1.6	0
276	166071	1.7	0
276	166071	1.8	0
276	166071	1.9	0
276	166071	2	0
276	166071	2.1	0
276	166071	2.2	0
276	166071	2.3	0
276	166071	2.4	0
276	166071	2.5	0
276	166071	2.6	0
276	166071	2.7	0
276	166071	2.8	0
276	166071	2.9	0
276	166071	3	0
276	166071	3.1	0
276	166071	3.2	0
276	166071	3.3	0
276	166071	3.4	0
276	166071	3.5	0
276	166071	3.6	0
276	166071	3.7	0
276	166071	3.8	0
276	166071	3.9	0
276	166071	4	0
276	166071	4.1	0
276	166071	4.2	0
276	166071	4.3	0
276	166071	4.4	0
276	166071	4.5	0
276	166071	4.6	0
276	166071	4.7	0
276	166071	4.8	0
276	166071	4.9	0
276	166071	5	0
276	166071	5.1	0
276	166071	5.2	0
276	166071	5.3	0
276	166071	5.4	0
276	166071	5.5	0
276	166071	5.6	0
276	166071	5.7	0
276	166071	5.8	0
276	166071	5.9	0
276	166071	6	0
276	166071	6.1	0
276	166071	6.2	0
276	166071	6.3	0
276	166071	6.4	0
276	166071	6.5	0
276	166071	6.6	0
276	166071	6.7	0
276	166071	6.8	0
276	166071	6.9	0
276	166071	7	0
276	166071	7.1	0
276	166071	7.2	0
276	166071	7.3	0
276	166071	7.4	0
276	166071	7.5	0
276	166071	7.6	0
276	166071	7.7	0
276	166071	7.8	0
276	166071	7.9	0
276	166071	8	0
276	166071	8.1	0
276	166071	8.2	0
276	166071	8.3	0
276	166071	8.4	0
276	166071	8.5	0
276	166071	8.6	0
276	166071	8.7	0
276	166071	8.8	0
276	166071	8.9	0
276	166071	9	0
276	166071	9.1	0
276	166071	9.2	0
276	166071	9.3	0
276	166071	9.4	0
276	166071	9.5	0
276	166071	9.6	0
276	166071	9.7	0
276	166071	9.8	0
276	166071	9.9	0
276	166071	10	0
276	166071	10.1	0
276	166071	10.2	0
276	166071	10.3	0
276	166071	10.4	0
276	166071	10.5	0
276	166071	10.6	0
276	166071	10.7	0
276	166071	10.8	0
276	166071	10.9	0
276	166071	11	0
276	166071	11.1	0
276	166071	11.2	0
276	166071	11.3	0
276	166071	11.4	0
276	166071	11.5	0
276	166071	11.6	0
276	166071	11.7	0
276	166071	11.8	0
276	166071	11.9	0
276	166071	12	0
276	166071	12.1	0
276	166071	12.2	0
276	166071	12.3	0
276	166071	12.4	0
276	166071	12.5	0
276	166071	12.6	0
276	166071	12.7	0
276	166071	12.8	0
276	166071	12.9	0
276	166071	13	0
276	166071	13.1	0
276	166071	13.2	0
276	166071	13.3	0
276	166071	13.4	0
276	166071	13.5	0
276	166071	13.6	0
276	166071	13.7	0
276	166071	13.8	0
276	166071	13.9	0
276	166071	14	0
276	166071	14.1	0
276	166071	14.2	0
276	166071	14.3	0
276	166071	14.4	0
276	166071	14.5	0
276	166071	14.6	0
276	166071	14.7	0
276	166071	14.8	0
276	166071	14.9	0
276	166071	15	0
276	166071	15.1	0
276	166071	15.2	0
276	166071	15.3	0
276	166071	15.4	0
276	166071	15.5	0
276	166071	15.6	0
276	166071	15.7	0
276	166071	15.8	0
276	166071	15.9	0
276	166071	16	0
276	166071	16.1	0
276	166071	16.2	0
276	166071	16.3	0
276	166071	16.4	0
276	166071	16.5	0
276	166071	16.6	0
276	166071	16.7	0
276	166071	16.8	0
276	166071	16.9	0
276	166071	17	0
276	166071	17.1	0
276	166071	17.2	0
276	166071	17.3	0
276	166071	17.4	0
276	166071	17.5	0
276	166071	17.6	0
276	166071	17.7	0
276	166071	17.8	0
276	166071	17.9	0
276	166071	18	0
276	166071	18.1	0
276	166071	18.2	0
276	166071	18.3	0
276	166071	18.4	0
276	166071	18.5	0
276	166071	18.6	0
276	166071	18.7	0
276	166071	18.8	0
276	166071	18.9	0
276	166071	19	0
276	166071	19.1	0
276	166071	19.2	0
276	166071	19.3	0
276	166071	19.4	0
276	166071	19.5	0
276	166071	19.6	0
276	166071	19.7	0
276	166071	19.8	0
276	166071	19.9	0
276	166071	20	0
276	166071	20.1	0
276	166071	20.2	0
276	166071	20.3	0
276	166071	20.4	0
276	166071	20.5	0
276	166071	20.6	0
276	166071	20.7	0
276	166071	20.8	0
276	166071	20.9	0
276	166071	21	0
276	166071	21.1	0
276	166071	21.2	0
276	166071	21.3	0
276	166071	21.4	0
276	166071	21.5	0
276	166071	21.6	0
276	166071	21.7	0
276	166071	21.8	0
276	166071	21.9	0
276	166071	22	0
276	166071	22.1	0
276	166071	22.2	0
276	166071	22.3	0
276	166071	22.4	0
276	166071	22.5	0
276	166071	22.6	0
276	166071	22.7	0
276	166071	22.8	0
276	166071	22.9	0
276	166071	23	0
276	166071	23.1	0
276	166071	23.2	0
276	166071	23.3	0
276	166071	23.4	0
276	166071	23.5	0
276	166071	23.6	0
276	166071	23.7	0
276	166071	23.8	0
276	166071	23.9	0
276	166071	24	0
276	166071	24.1	0
276	166071	24.2	0
276	166071	24.3	0
276	166071	24.4	0
276	166071	24.5	0
276	166071	24.6	0
276	166071	24.7	0
276	166071	24.8	0
276	166071	24.9	0
276	166071	25	0
276	166071	25.1	0
276	166071	25.2	0
276	166071	25.3	0
276	166071	25.4	0
276	166071	25.5	0
276	166071	25.6	0
276	166071	25.7	0
276	166071	25.8	0
276	166071	25.9	0
276	166071	26	0
276	166071	26.1	0
276	166071	26.2	0
276	166071	26.3	0
276	166071	26.4	0
276	166071	26.5	0
276	166071	26.6	0
276	166071	26.7	0
276	166071	26.8	0
276	166071	26.9	0
276	166071	27	0
276	166071	27.1	0
276	166071	27.2	0
276	166071	27.3	0
276	166071	27.4	0
276	166071	27.5	0
276	166071	27.6	0
276	166071	27.7	0
276	166071	27.8	0
276	166071	27.9	0
276	166071	28	0
276	166071	28.1	0
276	166071	28.2	0
276	166071	28.3	0
276	166071	28.4	0
276	166071	28.5	0
276	166071	28.6	0
276	166071	28.7	0
276	166071	28.8	0
276	166071	28.9	0
276	166071	29	0
276	166071	29.1	0
276	166071	29.2	0
276	166071	29.3	0
276	166071	29.4	0
276	166071	29.5	0
276	166071	29.6	0
276	166071	29.7	0
276	166071	29.8	0
276	166071	29.9	0
276	166071	30	0
276	166071	30.1	0
276	166071	30.2	0
276	166071	30.3	0
276	166071	30.4	0
276	166071	30.5	0
276	166071	30.6	0
276	166071	30.7	0
276	166071	30.8	0
276	166071	30.9	0
276	166071	31	0
276	166071	31.1	0
276	166071	31.2	0
276	166071	31.3	0
276	166071	31.4	0
276	166071	31.5	0
276	166071	31.6	0
276	166071	31.7	0
276	166071	31.8	0
276	166071	31.9	0
276	166071	32	0
276	166071	32.1	0
276	166071	32.2	0
276	166071	32.3	0
276	166071	32.4	0
276	166071	32.5	0
276	166071	32.6	0
276	166071	32.7	0
276	166071	32.8	0
276	166071	32.9	0
276	166071	33	0
276	166071	33.1	0
276	166071	33.2	0
276	166071	33.3	0
276	166071	33.4	0
276	166071	33.5	0
276	166071	33.6	0
276	166071	33.7	0
276	166071	33.8	0
276	166071	33.9	0
276	166071	34	0
276	166071	34.1	0
276	166071	34.2	0
276	166071	34.3	0
276	166071	34.4	0
276	166071	34.5	0
276	166071	34.6	0
276	166071	34.7	0
276	166071	34.8	0
276	166071	34.9	0
276	166071	35	0
276	166071	35.1	0
276	166071	35.2	0
276	166071	35.3	0
276	166071	35.4	0
276	166071	35.5	0
276	166071	35.6	0
276	166071	35.7	0
276	166071	35.8	0
276	166071	35.9	0
276	166071	36	0
276	166071	36.1	0
276	166071	36.2	0
276	166071	36.3	0
276	166071	36.4	0
276	166071	36.5	0
276	166071	36.6	0
276	166071	36.7	0
276	166071	36.8	0
276	166071	36.9	0
276	166071	37	0
276	166071	37.1	0
276	166071	37.2	0
276	166071	37.3	0
276	166071	37.4	0
276	166071	37.5	0
276	166071	37.6	0
276	166071	37.7	0
276	166071	37.8	0
276	166071	37.9	0
276	166071	38	0
276	166071	38.1	0
276	166071	38.2	0
276	166071	38.3	0
276	166071	38.4	0
276	166071	38.5	0
276	166071	38.6	0
276	166071	38.7	0
276	166071	38.8	0
276	166071	38.9	0
276	166071	39	0
276	166071	39.1	0
276	166071	39.2	0
276	166071	39.3	0
276	166071	39.4	0
276	166071	39.5	0
276	166071	39.6	0
276	166071	39.7	0
276	166071	39.8	0
276	166071	39.9	0
276	166071	40	0

